<?xml version='1.0' encoding='UTF-8'?>
<nodes>
  <node id="10049128053" x="-182.042923" y="-197.573718" shape="-181.108482,-201.463039 -178.342174,-201.096477 -177.219161,-200.528598 -179.088043,-192.749956 -182.977364,-193.684397 -183.968263,-198.710849 -182.342174,-201.094534 -181.108482,-201.463039 -181.108482,-201.463039"/>
  <node id="10049128059" x="-191.302726" y="-201.648735"/>
  <node id="10158428275" x="1093.593843" y="-20.682694" shape="1093.900681,-26.331220 1099.242369,-20.375856 1093.296944,-15.033636 1087.944785,-20.979593 1091.945378,-24.839924 1093.900681,-26.331220 1093.900681,-26.331220"/>
  <node id="10261879566" x="1079.175029" y="167.931995" shape="1080.450945,165.125060 1082.148715,168.746879 1082.535470,170.882831 1078.830624,172.390850 1076.386309,171.424311 1074.701966,167.796228 1080.450945,165.125060 1080.450945,165.125060"/>
  <node id="10261879567" x="1071.257606" y="178.482815" shape="1075.632545,172.750459 1078.482612,177.588788 1079.202625,183.160066 1067.850502,187.049707 1064.283531,176.649162 1075.632545,172.750459 1075.632545,172.750459"/>
  <node id="10261879569" x="1084.533531" y="181.096573" shape="1084.877936,176.637718 1086.385954,180.342564 1086.520207,180.866103 1086.981148,184.839456 1083.007795,185.300396 1080.395141,181.936642 1081.013392,177.984710 1084.877936,176.637718 1084.877936,176.637718"/>
  <node id="10261879574" x="1082.1855" y="226.768197" shape="1087.346563,219.128601 1088.646221,223.412741 1088.606855,230.049387 1076.686958,231.433605 1076.224779,227.453618 1075.425120,220.499444 1087.346563,219.128601 1087.346563,219.128601"/>
  <node id="10264529990" x="1088.635052" y="-498.191737" shape="1092.781334,-505.106095 1096.697073,-498.129922 1095.897954,-496.622348 1093.747546,-493.249554 1088.583559,-494.068953 1087.752852,-496.396821 1086.677183,-501.679824 1086.740353,-501.853719 1092.781334,-505.106095 1092.781334,-505.106095"/>
  <node id="10264529992" x="1099.23117" y="-491.806718" shape="1103.068738,-499.133317 1103.079681,-499.000408 1103.354165,-491.836957 1098.069560,-490.178633 1095.607464,-489.839804 1092.403873,-494.106245 1095.084058,-498.709041 1103.068738,-499.133317 1103.068738,-499.133317"/>
  <node id="1029177015" x="-650.046625" y="-481.652177"/>
  <node id="10556480901" x="-441.98612" y="-222.068133" shape="-444.906995,-224.703096 -443.748126,-224.556680 -441.512076,-224.011142 -441.468781,-224.000065 -440.502815,-223.741396 -441.537493,-219.877532 -445.559672,-220.759684 -444.906995,-224.703096 -444.906995,-224.703096"/>
  <node id="10586952320" x="-928.841246" y="38.131301" shape="-932.042416,35.008400 -924.422702,37.441033 -925.637905,41.251975 -926.530017,41.959906 -930.517393,42.277448 -933.260269,38.818497 -932.042416,35.008400 -932.042416,35.008400"/>
  <node id="10591242211" x="-703.551999" y="168.046285" shape="-699.908311,163.719214 -699.607182,165.988473 -699.107984,171.546390 -707.052104,172.490300 -707.524059,168.518240 -707.537378,168.387977 -707.879070,164.402597 -699.908311,163.719214 -699.908311,163.719214"/>
  <node id="10591242217" x="-704.189887" y="160.606165" shape="-700.672327,156.175954 -699.906062,162.320117 -699.862816,164.249853 -707.833575,164.933236 -708.620098,157.088605 -700.672327,156.175954 -700.672327,156.175954"/>
  <node id="10591242239" x="-682.037142" y="-93.042673" shape="-683.854581,-97.608269 -677.128682,-93.276724 -680.236694,-87.679988 -687.399827,-91.242225 -685.618708,-94.823791 -685.400091,-95.208446 -683.854581,-97.608269 -683.854581,-97.608269"/>
  <node id="10692636096" x="-128.871152" y="-70.603895" shape="-127.829835,-74.953109 -124.766991,-72.380370 -124.432086,-70.061042 -126.641995,-66.726930 -129.309527,-68.411219 -129.976107,-68.936839 -130.402574,-71.890264 -130.362268,-72.270201 -127.829835,-74.953109 -127.829835,-74.953109"/>
  <node id="10692636104" x="-153.483598" y="-45.904776" shape="-153.583393,-51.560750 -147.827624,-46.004571 -149.753837,-43.437209 -152.763346,-40.893853 -154.904099,-39.887449 -158.307682,-47.127312 -153.583393,-51.560750 -153.583393,-51.560750"/>
  <node id="10692636105" x="-211.447634" y="-28.242898" shape="-208.418718,-33.020519 -206.670013,-25.213982 -212.428620,-23.879681 -214.477636,-23.465965 -216.224567,-31.272900 -208.418718,-33.020519 -208.418718,-33.020519"/>
  <node id="10692636106" x="-207.411654" y="-11.926794" shape="-206.430668,-16.290011 -203.967312,-14.779251 -203.063084,-10.882794 -206.959540,-9.978566 -206.999985,-9.969620 -210.914333,-9.146283 -211.737670,-13.060630 -210.313636,-15.329513 -206.430668,-16.290011 -206.430668,-16.290011"/>
  <node id="10692636109" x="-319.609925" y="27.894838" shape="-320.614900,23.537083 -315.520407,29.704766 -318.604156,32.252410 -319.513783,32.365940 -323.129121,30.654413 -323.699114,26.084165 -320.614900,23.537083 -320.614900,23.537083"/>
  <node id="10692636111" x="-324.330695" y="22.059778" shape="-325.210810,17.675100 -321.783220,18.384132 -319.861693,21.892370 -320.300573,23.917697 -323.384787,26.464778 -324.411873,25.221098 -328.366506,20.133063 -325.210810,17.675100 -325.210810,17.675100"/>
  <node id="10692636113" x="-171.286405" y="-136.032421" shape="-170.688301,-140.464381 -168.202182,-139.270872 -166.845110,-135.508113 -170.607917,-134.151024 -174.370711,-132.794049 -175.727687,-136.556843 -174.473111,-139.170080 -170.688301,-140.464381 -170.688301,-140.464381"/>
  <node id="10692636115" x="-424.290024" y="173.968339" shape="-423.952672,169.790217 -420.602346,171.975467 -420.035818,175.347373 -422.840728,178.199124 -427.822776,176.710539 -428.603436,172.787458 -423.952672,169.790217 -423.952672,169.790217"/>
  <node id="10692636118" x="-361.980634" y="168.155856" shape="-359.483613,163.864949 -356.610580,171.331252 -357.933278,171.840226 -360.910092,172.497968 -365.737150,172.474430 -366.414417,172.398128 -365.998816,164.469311 -359.483613,163.864949 -359.483613,163.864949"/>
  <node id="10692636124" x="-297.169403" y="249.991001" shape="-294.389469,246.487864 -292.698933,250.113066 -293.825891,252.961006 -297.539299,254.447813 -299.982090,253.467895 -301.638530,249.826988 -294.389469,246.487864 -294.389469,246.487864"/>
  <node id="10692636146" x="-108.452634" y="89.836064" shape="-107.433170,85.835567 -104.220067,86.027135 -104.696187,94.012954 -112.450687,93.838010 -112.454580,85.838011 -108.454581,85.836064 -107.433170,85.835567 -107.433170,85.835567"/>
  <node id="10692636147" x="-109.036962" y="100.958279" shape="-110.824349,96.858859 -106.829858,97.068717 -104.973026,99.091617 -105.105271,103.089430 -109.103084,102.957186 -109.137416,102.955755 -113.132368,102.754846 -112.931459,98.759895 -110.824349,96.858859 -110.824349,96.858859"/>
  <node id="10692636150" x="-436.826568" y="272.900054" shape="-433.252708,270.512483 -432.062630,275.950446 -439.876960,277.663992 -443.308059,276.215213 -444.081125,272.290628 -437.213101,270.937761 -433.252708,270.512483 -433.252708,270.512483"/>
  <node id="10692636152" x="-452.174501" y="265.632959"/>
  <node id="10692636162" x="-142.87829" y="-135.194947" shape="-140.172682,-140.559546 -139.175842,-138.152995 -138.442511,-135.764038 -138.474962,-131.643792 -146.429445,-130.791619 -147.563703,-137.498041 -140.172682,-140.559546 -140.172682,-140.559546"/>
  <node id="10692636167" x="-141.704612" y="-124.23942" shape="-138.153457,-128.642748 -137.377839,-123.108475 -137.300075,-120.689764 -145.254268,-119.834883 -145.681854,-123.813333 -146.107940,-127.790575 -138.153457,-128.642748 -138.153457,-128.642748"/>
  <node id="10709412794" x="636.398611" y="-372.769813" shape="635.160931,-377.067271 639.093970,-376.338432 640.737260,-371.685319 638.134205,-368.648198 635.096941,-371.251374 632.060064,-373.854713 634.663403,-376.891591 635.160931,-377.067271 635.160931,-377.067271"/>
  <node id="10719094512" x="-833.986239" y="-244.253637" shape="-832.760918,-248.554635 -829.810247,-245.853979 -830.141225,-241.969810 -833.506292,-239.807329 -835.210448,-239.952322 -838.161817,-242.652215 -835.461574,-245.603965 -832.760918,-248.554635 -832.760918,-248.554635"/>
  <node id="10719094514" x="-836.787679" y="-216.093595" shape="-837.397101,-217.998485 -834.563544,-216.324296 -835.986345,-211.693838 -839.826685,-212.812674 -839.988037,-212.969862 -841.206880,-216.779641 -838.306721,-217.734482 -837.397101,-217.998485 -837.397101,-217.998485"/>
  <node id="10732589452" x="1048.242859" y="-37.078332" shape="1048.355965,-41.549037 1051.540530,-40.099154 1052.638119,-36.252688 1049.436095,-32.768322 1045.510792,-33.537737 1044.734158,-39.851240 1048.355965,-41.549037 1048.355965,-41.549037"/>
  <node id="10732589453" x="1059.846867" y="-40.389536" shape="1061.257390,-44.633405 1062.417493,-36.736931 1058.463683,-36.130807 1056.549196,-37.368714 1055.451607,-41.215180 1057.298085,-44.064276 1061.257390,-44.633405 1061.257390,-44.633405"/>
  <node id="10732589457" x="1037.233785" y="46.23058" shape="1036.013314,41.928203 1039.943404,42.672777 1041.658737,45.582661 1040.407091,49.381791 1038.179698,50.601535 1034.304569,49.609884 1036.013314,41.928203 1036.013314,41.928203"/>
  <node id="10732605209" x="902.734773" y="104.370346" shape="899.313023,99.865723 903.443621,99.954745 907.207860,100.953057 907.776252,101.113778 905.599490,108.811940 898.230150,107.792096 899.313023,99.865723 899.313023,99.865723"/>
  <node id="10734890733" x="-1067.125629" y="591.621906" shape="-1067.067352,587.150150 -1063.479512,594.000039 -1066.829538,596.185748 -1071.154811,593.562445 -1071.095570,589.562884 -1070.668068,588.892231 -1067.067352,587.150150 -1067.067352,587.150150"/>
  <node id="10734890736" x="-1075.590899" y="574.125" shape="-1075.531584,569.653257 -1072.048460,576.854675 -1075.649176,578.596756 -1075.871191,578.588344 -1079.329749,576.578772 -1079.132704,571.394502 -1075.531584,569.653257 -1075.531584,569.653257"/>
  <node id="10734892509" x="-1095.408415" y="687.244945" shape="-1094.234181,682.929719 -1091.969911,684.385453 -1091.057719,688.280053 -1098.846700,690.104699 -1099.759190,686.210169 -1098.156056,683.716422 -1094.234181,682.929719 -1094.234181,682.929719"/>
  <node id="10734892511" x="-1110.340392" y="688.689527"/>
  <node id="10755594398" x="-293.189075" y="174.976784" shape="-292.038892,170.655085 -289.041606,173.303911 -288.717926,174.882838 -290.431229,178.497336 -294.050976,176.781535 -297.660478,175.057733 -295.936676,171.448231 -292.038892,170.655085 -292.038892,170.655085"/>
  <node id="10755604321" x="-139.629711" y="-67.668931" shape="-140.836106,-75.640418 -133.374445,-72.755349 -132.350123,-67.581736 -137.338445,-62.496881 -144.801761,-65.377665 -143.360541,-69.111466 -140.836106,-75.640418 -140.836106,-75.640418"/>
  <node id="10772249862" x="1101.417243" y="-481.083883" shape="1104.831266,-485.594365 1105.261296,-482.676904 1105.379495,-481.632112 1105.406441,-481.377651 1105.700209,-477.388453 1097.721813,-476.800917 1096.906761,-484.497906 1104.831266,-485.594365 1104.831266,-485.594365"/>
  <node id="10855367811" x="254.739407" y="-458.918494" shape="251.033796,-460.726378 256.507846,-459.852636 258.859833,-459.067120 260.061944,-454.705962 257.622300,-451.389289 249.716330,-452.612252 250.786422,-459.529975 250.826388,-459.748123 251.033796,-460.726378 251.033796,-460.726378"/>
  <node id="10855367812" x="266.037408" y="-450.831269" shape="264.282007,-454.562029 266.429703,-452.792418 269.341943,-448.365493 268.567376,-447.733001 268.380756,-447.589554 262.707754,-443.488694 258.021058,-449.972125 258.008632,-451.145930 260.749113,-454.059650 264.282007,-454.562029 264.282007,-454.562029"/>
  <node id="10855367821" x="270.79906" y="-406.423295" shape="270.912301,-412.079016 276.454781,-406.310054 276.176962,-404.463864 268.883454,-401.176806 265.397919,-404.658540 269.050190,-411.776189 270.912301,-412.079016 270.912301,-412.079016"/>
  <node id="10901301132" x="-305.705346" y="-553.404564" shape="-307.787557,-558.664259 -302.907385,-556.893319 -301.672527,-556.012453 -304.863419,-548.676364 -310.965041,-551.322353 -307.787557,-558.664259 -307.787557,-558.664259"/>
  <node id="10961182787" x="1055.585353" y="52.291228" shape="1054.642777,47.919552 1058.517148,48.914162 1057.521786,52.791457 1056.521328,56.664322 1052.648463,55.663864 1051.164773,52.925974 1052.416419,49.126845 1054.642777,47.919552 1054.642777,47.919552"/>
  <node id="11018992670" x="-573.703053" y="-459.323808" shape="-575.708266,-461.366589 -569.666275,-461.248495 -569.741236,-457.249197 -571.757543,-456.269711 -575.756899,-456.341487 -575.792697,-457.367480 -575.708266,-461.366589 -575.708266,-461.366589"/>
  <node id="11113185712" x="346.234554" y="-535.633162" shape="347.503531,-541.145847 351.747239,-534.364185 348.356188,-532.242193 344.965219,-530.120559 340.721951,-536.902497 342.449174,-538.014527 347.503531,-541.145847 347.503531,-541.145847"/>
  <node id="11113185715" x="334.899379" y="-528.541061" shape="336.168714,-534.053664 340.411982,-527.271726 333.630548,-523.028342 329.386660,-529.809892 331.087354,-530.879537 336.168714,-534.053664 336.168714,-534.053664"/>
  <node id="1119600893" x="1139.796549" y="-245.917585"/>
  <node id="1119600906" x="1087.177313" y="-220.663498" shape="1085.629357,-226.546000 1090.549434,-215.601009 1089.637351,-215.191002 1087.730982,-216.577736 1084.766070,-224.008032 1084.717275,-226.135994 1085.629357,-226.546000 1085.629357,-226.546000"/>
  <node id="1119600916" x="1117.885941" y="-781.493234" shape="1114.767543,-786.619207 1117.896766,-785.965357 1121.127148,-784.574561 1123.939678,-776.758277 1116.775692,-773.197755 1114.275689,-772.352136 1108.838493,-783.012255 1114.767543,-786.619207 1114.767543,-786.619207"/>
  <node id="1119601024" x="1175.711521" y="-646.985967"/>
  <node id="1119642645" x="1131.225458" y="-785.56807" shape="1136.175687,-791.872375 1139.262170,-784.491751 1137.596456,-780.622287 1130.199777,-777.574479 1127.984251,-782.486743 1126.815672,-786.312240 1127.519138,-788.070707 1131.003775,-790.034708 1136.175687,-791.872375 1136.175687,-791.872375"/>
  <node id="1119642649" x="1123.407541" y="-799.43904" shape="1125.671041,-806.285686 1128.856945,-794.716330 1125.000493,-793.654362 1120.480126,-796.058176 1117.976789,-801.022370 1121.814589,-805.223718 1125.671041,-806.285686 1125.671041,-806.285686"/>
  <node id="1119642651" x="1054.814382" y="-208.343088" shape="1055.502099,-217.066020 1060.120754,-214.412883 1062.737748,-206.853032 1063.027535,-205.325371 1054.217057,-199.613500 1048.323715,-205.045931 1046.632928,-211.445717 1055.502099,-217.066020 1055.502099,-217.066020"/>
  <node id="1119642655" x="829.90315" y="-666.764154" shape="834.437173,-678.740908 842.583061,-664.969761 840.273721,-662.519891 833.976094,-659.878580 823.485939,-657.578192 821.509259,-664.293304 823.349937,-675.947790 834.437173,-678.740908 834.437173,-678.740908"/>
  <node id="1119642657" x="1059.958944" y="-200.407677" shape="1068.592966,-206.846130 1071.822714,-197.537353 1061.322860,-188.277057 1060.019062,-189.755379 1054.708515,-195.778099 1053.377754,-200.908114 1062.188232,-206.619985 1068.592966,-206.846130 1068.592966,-206.846130"/>
  <node id="1119642662" x="872.953091" y="-692.168412" shape="869.810396,-701.714273 877.923824,-683.433894 877.009805,-683.028222 868.027818,-698.551333 868.896377,-701.308602 869.810396,-701.714273 869.810396,-701.714273"/>
  <node id="1119642669" x="1148.689388" y="-241.23431" shape="1152.699374,-248.228594 1156.751072,-241.330497 1156.192856,-238.285079 1149.957965,-233.272482 1146.922609,-235.860439 1143.315517,-243.001089 1152.699374,-248.228594 1152.699374,-248.228594"/>
  <node id="1119655796" x="1059.741107" y="-607.207725"/>
  <node id="11219158060" x="318.77044" y="80.485534" shape="319.473980,74.872600 320.824483,76.513015 324.383171,81.190692 318.065282,86.098265 313.157506,79.781994 319.473980,74.872600 319.473980,74.872600"/>
  <node id="11442969687" x="-639.417948" y="593.634093" shape="-644.482277,587.360930 -637.959515,589.909449 -634.234871,591.367882 -637.151737,598.817170 -641.076156,601.523982 -647.057250,596.211118 -647.393640,594.812371 -644.482277,587.360930 -644.482277,587.360930"/>
  <node id="11442969688" x="-651.806784" y="607.581301" shape="-647.379336,593.495929 -640.182911,600.518387 -644.172854,610.174197 -657.916351,612.841832 -658.678533,608.915119 -658.681618,608.899124 -661.129004,596.131575 -647.379336,593.495929 -647.379336,593.495929"/>
  <node id="11702609956" x="-1087.241791" y="550.029446" shape="-1087.181483,545.557717 -1084.430947,546.551062 -1082.772577,550.191091 -1083.699986,552.759944 -1087.301106,554.501189 -1089.042544,550.899669 -1090.782990,547.298162 -1087.181483,545.557717 -1087.181483,545.557717"/>
  <node id="11925665577" x="-951.978144" y="235.596158"/>
  <node id="11925908256" x="-1166.046566" y="364.952613" shape="-1163.106526,361.582722 -1161.586629,365.282711 -1163.710610,368.766182 -1167.695848,369.109519 -1168.952518,368.351943 -1170.509601,364.667450 -1166.825108,363.110366 -1166.806514,363.102619 -1163.106526,361.582722 -1163.106526,361.582722"/>
  <node id="1207245033" x="164.638442" y="198.025953" shape="165.440735,193.586726 168.325332,196.474552 171.040284,202.926609 163.666504,206.029411 160.451481,204.915754 156.576926,197.916624 162.701164,194.526388 163.449275,194.206806 165.440735,193.586726 165.440735,193.586726"/>
  <node id="1207245188" x="110.484583" y="590.757872" shape="112.233019,585.378005 115.864450,592.506308 109.059455,596.232268 105.010187,589.332744 110.164265,586.297222 112.233019,585.378005 112.233019,585.378005"/>
  <node id="1207245219" x="-385.03634" y="645.957313"/>
  <node id="1207245273" x="50.98271" y="260.711139" shape="58.633036,253.130077 61.750920,260.497491 57.119378,266.121939 49.331406,266.121610 45.572239,259.059835 45.655673,258.807805 52.886044,255.384102 58.633036,253.130077 58.633036,253.130077"/>
  <node id="1207245832" x="-150.369497" y="567.48046" shape="-151.932105,563.798306 -147.489701,564.058943 -145.904406,567.731386 -145.120131,569.588577 -152.477614,572.729826 -152.489042,572.725222 -155.614259,565.360915 -151.932105,563.798306 -151.932105,563.798306"/>
  <node id="1207245874" x="-382.017151" y="653.573149"/>
  <node id="1207246617" x="156.563092" y="249.913751" shape="157.313676,241.886508 160.995061,243.178942 164.615465,250.312852 158.373294,253.480706 158.306021,253.514056 154.705716,255.256985 151.219858,248.056375 150.028380,245.191725 157.313676,241.886508 157.313676,241.886508"/>
  <node id="1207246687" x="387.688927" y="417.901554" shape="388.520976,409.882346 391.969626,411.069599 395.748197,418.121010 386.902738,423.503510 382.086971,417.115365 381.202496,413.113422 388.520976,409.882346 388.520976,409.882346"/>
  <node id="1207246794" x="6.210176" y="335.789353" shape="8.391707,328.027850 10.090585,334.818566 5.626716,337.702354 2.329767,336.760140 -1.068789,335.660244 0.630889,329.969425 8.391707,328.027850 8.391707,328.027850"/>
  <node id="1207247104" x="-570.188669" y="676.28511" shape="-567.690431,673.005048 -563.193739,674.265138 -562.739019,679.367758 -569.062359,684.268306 -573.936555,678.003641 -570.194797,674.285119 -567.690431,673.005048 -567.690431,673.005048"/>
  <node id="1207247197" x="-5.426798" y="499.793699" shape="-6.099428,495.725829 -2.919009,503.066464 -9.587893,508.494902 -13.210230,506.798236 -14.260360,504.889598 -15.540816,501.100082 -7.017008,496.123381 -6.099428,495.725829 -6.099428,495.725829"/>
  <node id="1207248430" x="121.041624" y="585.379709" shape="122.028226,579.809555 126.611778,586.366311 123.333400,588.658087 122.857340,588.943861 119.293188,590.759576 115.661757,583.631273 122.028226,579.809555 122.028226,579.809555"/>
  <node id="1207249041" x="-106.027196" y="750.882231"/>
  <node id="1207249126" x="-14.200998" y="327.662377"/>
  <node id="1207249391" x="-270.59828" y="613.386791"/>
  <node id="1207249415" x="-363.933125" y="408.151927" shape="-365.350180,404.411345 -361.084625,404.704312 -359.465933,408.362158 -362.106858,412.234175 -366.256652,413.309564 -369.090762,405.828400 -365.350180,404.411345 -365.350180,404.411345"/>
  <node id="1207249487" x="122.69247" y="250.847835" shape="122.241067,242.798224 129.398346,246.372209 130.724236,250.147308 127.373667,257.411858 117.793544,253.676354 119.863951,245.948909 122.241067,242.798224 122.241067,242.798224"/>
  <node id="1207249688" x="370.131331" y="190.905867" shape="370.670417,182.861653 375.615512,192.292863 368.744335,196.390048 365.351848,197.398674 362.111021,190.084507 363.474621,186.357438 370.670417,182.861653 370.670417,182.861653"/>
  <node id="1207249740" x="-281.78679" y="578.942999" shape="-279.151392,570.855252 -273.807211,577.791337 -276.743418,585.233023 -281.492906,584.592214 -287.436005,579.236883 -284.758339,576.265333 -284.604034,576.103433 -279.795391,571.332592 -279.151392,570.855252 -279.151392,570.855252"/>
  <node id="1207249802" x="55.707547" y="480.571389"/>
  <node id="1207249909" x="-187.152449" y="414.986415" shape="-184.026545,410.271680 -182.690308,415.285243 -182.921051,418.740782 -190.906816,419.217813 -191.867184,411.860511 -184.026545,410.271680 -184.026545,410.271680"/>
  <node id="1207250126" x="-234.543213" y="596.896316"/>
  <node id="1207250245" x="-345.95588" y="444.969369" shape="-347.654422,440.832347 -343.665388,441.128322 -344.014170,448.997987 -349.945118,448.980102 -349.966613,440.980131 -347.654422,440.832347 -347.654422,440.832347"/>
  <node id="1207250712" x="-39.439175" y="689.0268" shape="-40.872600,681.378690 -38.591961,683.433748 -33.846123,689.874014 -37.066256,692.246933 -37.276067,692.391464 -43.164230,696.176903 -47.490445,689.447574 -47.260262,686.195097 -40.872600,681.378690 -40.872600,681.378690"/>
  <node id="1207250750" x="-522.915349" y="732.103842" shape="-524.864056,724.280637 -520.842314,725.125122 -517.655963,730.010141 -520.824574,737.355882 -524.493487,735.779367 -525.805664,734.868997 -530.644685,729.810947 -524.864056,724.280637 -524.864056,724.280637"/>
  <node id="1207251162" x="160.01165" y="179.465871"/>
  <node id="1207251239" x="-230.566044" y="652.18344" shape="-231.152767,648.226704 -229.279716,650.354407 -229.979321,656.140176 -230.968505,656.286856 -232.141951,648.373385 -231.152767,648.226704 -231.152767,648.226704"/>
  <node id="1207251363" x="-189.831844" y="715.711121"/>
  <node id="1207251567" x="172.368954" y="215.025689"/>
  <node id="1207251634" x="-286.147413" y="604.207187" shape="-286.435754,596.919317 -280.572039,603.250524 -285.190750,609.782561 -290.943330,610.253996 -294.451191,603.064079 -293.762356,600.131934 -286.435754,596.919317 -286.435754,596.919317"/>
  <node id="1207251654" x="75.661717" y="532.766165" shape="75.455999,528.298763 79.476868,535.099536 76.084111,537.218309 71.801939,535.024951 71.538821,531.033614 71.964365,530.250298 75.455999,528.298763 75.455999,528.298763"/>
  <node id="1207251690" x="-380.377009" y="639.929726"/>
  <node id="1207252043" x="-109.337917" y="624.827922"/>
  <node id="1207252140" x="167.509516" y="244.358524" shape="169.451872,239.045591 169.552074,239.083303 172.784737,246.401082 165.752764,249.735681 162.132359,242.601772 162.196583,242.416168 169.451872,239.045591 169.451872,239.045591"/>
  <node id="1207252278" x="-374.263154" y="445.480706" shape="-377.154564,440.618634 -370.557675,441.206431 -369.988879,449.186185 -374.085310,449.949304 -379.125226,448.372116 -377.154564,440.618634 -377.154564,440.618634"/>
  <node id="1207252279" x="-337.06055" y="613.93891" shape="-332.476459,607.306707 -329.019345,614.521162 -330.033113,617.890509 -336.897229,621.999513 -339.744733,617.515943 -341.532686,613.937783 -338.789107,610.331683 -332.476459,607.306707 -332.476459,607.306707"/>
  <node id="1207252294" x="-42.310795" y="504.97465" shape="-40.761515,499.534086 -38.399454,502.806376 -38.229371,506.802758 -38.830929,507.783659 -42.470083,509.443948 -45.805717,506.920292 -47.751359,503.425370 -40.761515,499.534086 -40.761515,499.534086"/>
  <node id="1207252346" x="299.742332" y="102.05315"/>
  <node id="1207252365" x="-195.478332" y="705.443228"/>
  <node id="1207252481" x="447.272574" y="367.536565"/>
  <node id="1207252613" x="437.63703" y="391.609236" shape="439.772377,386.370888 442.875378,393.744583 435.937994,397.004908 432.241358,389.910200 434.088412,388.887599 437.685168,387.137359 439.772377,386.370888 439.772377,386.370888"/>
  <node id="1207252721" x="-413.872027" y="748.932319"/>
  <node id="1207252944" x="467.496187" y="379.057712" shape="469.961753,373.966447 472.587452,381.523278 465.357413,384.294662 462.259237,376.918938 464.115731,376.129826 467.810222,374.596615 469.961753,373.966447 469.961753,373.966447"/>
  <node id="1207252975" x="-350.127289" y="402.042487"/>
  <node id="1207253016" x="-144.097733" y="582.170288" shape="-143.167584,574.161866 -139.288614,575.699401 -136.081263,583.028309 -137.617207,586.966410 -144.939663,590.188464 -147.758961,583.781315 -147.776475,583.740912 -150.525067,577.303114 -143.167584,574.161866 -143.167584,574.161866"/>
  <node id="1207253205" x="463.408241" y="301.460606" shape="465.474023,296.194436 468.700097,303.459671 461.409176,306.752462 461.382388,306.742265 458.126582,299.434753 458.142071,299.394824 465.474023,296.194436 465.474023,296.194436"/>
  <node id="1207253307" x="436.265001" y="247.091395" shape="433.255405,239.611934 438.746099,243.953856 438.990504,244.163660 441.918239,246.889163 436.467233,252.744633 431.517653,253.607735 428.240731,246.309668 428.293209,245.887013 433.255405,239.611934 433.255405,239.611934"/>
  <node id="1207253375" x="-375.585251" y="654.388116"/>
  <node id="1207253888" x="-655.644348" y="587.561458" shape="-649.631725,582.190391 -644.792198,587.239841 -646.886909,596.064826 -660.636577,598.700473 -663.324292,585.108201 -649.631725,582.190391 -649.631725,582.190391"/>
  <node id="1207253968" x="-196.584635" y="376.86025"/>
  <node id="1207254380" x="-18.458041" y="519.854902" shape="-18.988578,517.682684 -16.401945,520.733803 -17.164724,521.380461 -17.627666,521.674374 -18.537402,522.089561 -20.198152,518.450618 -18.988578,517.682684 -18.988578,517.682684"/>
  <node id="1207254564" x="-124.625047" y="741.914177" shape="-128.219101,737.545793 -120.256663,738.320123 -119.331895,740.668347 -123.818500,747.291819 -126.868350,745.225913 -129.061431,742.478535 -128.219101,737.545793 -128.219101,737.545793"/>
  <node id="1207254590" x="-217.610874" y="658.644633" shape="-215.410330,653.433337 -212.399578,660.845177 -217.645307,663.116636 -221.762470,656.982030 -218.771749,654.325794 -215.410330,653.433337 -215.410330,653.433337"/>
  <node id="1207254637" x="-358.134499" y="502.022253"/>
  <node id="1207254784" x="-255.827343" y="646.767491" shape="-252.943280,643.995816 -252.574114,644.234410 -247.116691,648.340261 -248.767212,656.168146 -254.236534,656.988690 -259.485225,648.386101 -259.889878,647.471631 -252.943280,643.995816 -252.943280,643.995816"/>
  <node id="1207254815" x="82.474027" y="515.051789"/>
  <node id="1207254881" x="487.331139" y="369.286009"/>
  <node id="1207254892" x="-163.575076" y="663.405294"/>
  <node id="1207254904" x="-5.748035" y="297.255377" shape="-6.715169,291.681810 -0.174468,296.288243 0.452459,302.408422 -7.039638,305.213502 -8.643887,303.934751 -11.735504,301.396659 -9.018386,294.952160 -6.715169,291.681810 -6.715169,291.681810"/>
  <node id="1207254931" x="-191.000583" y="396.005826" shape="-188.280565,391.045836 -186.535310,396.253493 -186.285166,399.130701 -194.125458,400.721243 -195.960573,393.285808 -188.280565,391.045836 -188.280565,391.045836"/>
  <node id="1207254946" x="213.754804" y="223.142489" shape="215.878865,217.899554 217.438302,221.583052 217.217531,225.972599 212.018728,228.526358 208.370935,221.406413 208.511869,221.018428 215.878865,217.899554 215.878865,217.899554"/>
  <node id="1207255020" x="-361.044304" y="445.00991" shape="-364.905608,440.875864 -357.055066,440.999177 -357.033571,448.999148 -362.836530,449.107217 -365.178350,448.871214 -364.905608,440.875864 -364.905608,440.875864"/>
  <node id="1207255120" x="-118.956552" y="728.921078"/>
  <node id="1207255178" x="87.12742" y="245.414727"/>
  <node id="1207255936" x="-398.783382" y="431.0209" shape="-396.020513,426.084651 -391.288209,433.991149 -397.537124,438.986252 -401.705168,438.751218 -406.514428,432.358173 -403.719631,428.258031 -396.020513,426.084651 -396.020513,426.084651"/>
  <node id="1207255944" x="-330.768561" y="624.449713" shape="-329.391006,618.963153 -328.823380,619.137814 -325.456662,626.394894 -329.085202,628.078253 -333.418843,628.051935 -336.255121,623.072158 -329.391006,618.963153 -329.391006,618.963153"/>
  <node id="1207256471" x="57.960171" y="262.211304"/>
  <node id="1207256495" x="-186.004463" y="487.24526"/>
  <node id="1207256664" x="406.310922" y="407.93143"/>
  <node id="1207256937" x="332.796099" y="137.569752" shape="330.670600,129.792718 335.623006,134.739806 335.790724,134.917918 338.442558,137.912543 332.453308,143.216211 327.803768,143.900362 324.807466,136.482669 325.016786,135.452611 330.670600,129.792718 330.670600,129.792718"/>
  <node id="1207257086" x="166.629903" y="197.405873" shape="167.454523,189.385898 168.722707,192.150383 171.885393,199.498677 168.211246,201.080020 167.819070,201.225020 165.827610,201.845100 162.972161,199.024800 160.139039,192.623752 167.454523,189.385898 167.454523,189.385898"/>
  <node id="1207257238" x="-133.709795" y="640.627221" shape="-132.529198,635.094935 -128.177509,641.807818 -131.533950,643.983662 -135.221558,644.296887 -137.648306,641.117123 -137.542851,638.338914 -132.529198,635.094935 -132.529198,635.094935"/>
  <node id="1207257293" x="-33.153742" y="526.561761" shape="-32.760802,522.106921 -30.345173,523.081540 -28.684424,526.720483 -32.323367,528.381233 -35.014266,527.295553 -36.481850,523.574505 -32.760802,522.106921 -32.760802,522.106921"/>
  <node id="1210167010" x="-837.892295" y="822.461287"/>