<?xml version='1.0' encoding='UTF-8'?>
<edges>
  <edge id="22277710" from="1119642655" to="1787007855" numLanes="3" width="3.5" shape="833.670711,-677.962214 830.199270,-702.882633 828.778740,-720.201688 "/>
  <edge id="22277789" from="1358272512" to="239624382" numLanes="2" width="4.0" shape="-401.008357,-676.353784 -403.178086,-674.220063 "/>
  <edge id="22278628" from="1358272528" to="1358272552" numLanes="2" width="4.0" shape="-406.412729,-648.144896 -402.290479,-637.467179 -402.146972,-637.139802 -401.974811,-636.826544 -401.775373,-636.529906 -401.550249,-636.252257 -398.009830,-632.264133 "/>
  <edge id="22278645" from="3838403039" to="1741821814" numLanes="1" width="4.0" shape="676.377670,-259.204191 685.501628,-236.798959 689.188377,-229.216619 694.588170,-222.751718 "/>
  <edge id="-22278645" to="3838403039" from="1741821814" numLanes="1" width="4.0" shape="694.588170,-222.751718 689.188377,-229.216619 685.501628,-236.798959 676.377670,-259.204191 "/>
  <edge id="22278659" from="239716535" to="239716537" numLanes="1" width="4.0" shape="872.889908,-153.088193 895.103920,-167.404800 904.258891,-172.948050 910.469939,-176.959618 "/>
  <edge id="-22278659" to="239716535" from="239716537" numLanes="1" width="4.0" shape="910.469939,-176.959618 904.258891,-172.948050 895.103920,-167.404800 872.889908,-153.088193 "/>
  <edge id="22741311" from="890479406" to="566531241" numLanes="3" width="3.5" shape="-775.074952,25.818756 -774.712247,33.011075 -774.702962,33.155555 -770.560196,86.184490 -764.334376,167.014374 "/>
  <edge id="22741543" from="243990988" to="243988663" numLanes="4" width="3.5" shape="-777.305108,-130.265885 -777.385278,-112.145681 "/>
  <edge id="22892479" from="5667041986" to="5667041974" numLanes="2" width="3.5" shape="-1137.783666,765.460675 -1137.089569,767.126891 -1137.086891,767.133303 -1127.372561,790.323242 "/>
  <edge id="22945256" from="247184647" to="239710686" numLanes="2" width="4.0" shape="-749.245787,-305.419500 -752.138427,-305.998710 -764.209718,-311.167284 -774.876670,-319.410015 "/>
  <edge id="22945257" from="566531259" to="3203995085" numLanes="1" width="4.0" shape="-752.624251,-231.996190 -752.528331,-235.478771 -749.557396,-249.658185 -744.727875,-262.031987 "/>
  <edge id="22945258" from="243990675" to="247184660" numLanes="1" width="4.0" shape="-809.098100,-304.647304 -808.995287,-297.834293 -808.991654,-297.740261 -807.881388,-279.897546 -806.819382,-262.685997 -806.672433,-234.628020 "/>
  <edge id="22945259" from="1358273045" to="148146073" numLanes="2" width="4.0" shape="-737.606427,-21.589080 -736.666354,-24.997862 -736.609709,-25.230136 -734.864127,-33.447616 -724.439635,-66.015257 -719.523876,-77.495936 -708.979488,-102.155050 -696.245540,-118.488155 -678.807258,-132.903520 -554.818600,-202.533871 "/>
  <edge id="23101289" from="6945841052" to="249393280" numLanes="2" width="4.0" shape="-947.636803,256.075017 -963.513707,249.998040 -971.338597,247.005418 -971.725345,246.879641 -981.785667,244.164888 -981.840372,244.150540 -988.684456,242.407106 -988.835021,242.371836 -996.980988,240.629041 -997.326268,240.570842 -997.675315,240.543063 -1005.668365,240.258093 "/>
  <edge id="25098860" from="6987955098" to="1617421500" numLanes="2" width="4.0" shape="440.721389,197.273588 422.351984,177.470903 422.272952,177.388113 382.723825,137.127457 365.284189,117.760307 348.883554,98.824015 "/>
  <edge id="35000734" from="6945029417" to="6945029420" numLanes="2" width="4.0" shape="978.992179,687.310247 968.410407,686.785690 968.078051,686.783040 967.746622,686.807991 959.034589,687.829326 958.572265,687.911271 958.122728,688.046828 953.346548,689.798935 944.955082,692.615584 944.466667,692.816288 937.338556,696.311992 933.581156,698.147731 "/>
  <edge id="35536644" from="416342626" to="416342630" numLanes="1" width="4.0" shape="-787.458575,-6.141803 -793.730808,6.933391 -803.833187,17.847863 -817.902117,24.623163 -832.199607,26.748953 -847.863661,23.964806 -860.020331,17.220055 -870.698160,5.852216 -874.983797,-7.447737 -875.814282,-22.086875 -871.927809,-35.616468 -862.120449,-46.322738 "/>
  <edge id="44628858" from="566531236" to="1358273038" numLanes="1" width="4.0" shape="-1030.358240,48.303173 -1029.731644,48.086884 -1029.574666,48.025174 -1029.423447,47.950457 -1025.908191,46.025056 -1025.759699,45.935132 -990.764067,22.608750 -972.558153,12.770709 "/>
  <edge id="44628859" from="566531242" to="566531259" numLanes="4" width="3.5" shape="-745.155647,-102.524561 -746.421448,-165.375150 -746.422077,-165.403518 -746.897564,-185.055468 "/>
  <edge id="74887695" from="237492442" to="237492848" numLanes="2" width="3.5" shape="-652.933999,745.575803 -652.558758,755.095274 "/>
  <edge id="74887696" from="1843451934" to="237492544" numLanes="4" width="3.5" shape="-875.026395,707.931868 -913.267894,704.397215 -962.854035,699.822345 "/>
  <edge id="74887698" from="4733015140" to="239619404" numLanes="4" width="3.5" shape="-665.872007,507.085881 -670.601258,483.970899 -670.614546,483.907446 -670.832040,482.892374 "/>
  <edge id="75007264" from="3739981700" to="237492848" numLanes="4" width="3.5" shape="-699.131989,763.504090 -676.078891,766.195411 -668.457184,767.087077 -656.531513,768.471446 "/>
  <edge id="75007265" from="7915375142" to="6041573341" numLanes="3" width="3.5" shape="-310.479928,803.409268 -244.516357,807.091655 -244.086701,807.098027 -243.657962,807.069241 -197.861034,802.104973 -179.367134,800.094693 -178.970835,800.036243 -178.580146,799.947746 -124.030855,785.382951 -123.458718,785.194418 -96.547336,774.578942 "/>
  <edge id="75007270" from="3731816485" to="4745823659" numLanes="3" width="3.5" shape="602.752159,359.078239 616.205319,350.739759 655.876935,328.444219 669.207131,321.114596 "/>
  <edge id="75007271" from="3904772769" to="1207249041" numLanes="3" width="3.5" shape="44.562507,650.271310 3.271354,676.537440 3.083279,676.662845 -22.362948,694.433167 -69.807978,725.647523 -108.494780,746.248277 "/>
  <edge id="75009413" from="4602296299" to="6182747595" numLanes="3" width="3.5" shape="-1089.221103,744.684211 -1061.329210,738.524907 -1034.266565,734.262247 -1009.928439,732.695767 "/>
  <edge id="75044389" from="Custom1721" to="4723147231" numLanes="4" width="3.5" shape="525.361471,-876.146275 468.973201,-844.024806 "/>
  <edge id="75044397" from="Custom1722" to="4734370694" numLanes="3" width="3.5" shape="-949.852460,-1016.762645 -949.459703,-1009.963625 -938.799425,-826.245037 "/>
  <edge id="75044399" from="243988661" to="4855743647" numLanes="4" width="3.5" shape="-701.679784,487.084345 -701.511704,487.782882 "/>
  <edge id="75044401" from="239712244" to="1553453140" numLanes="3" width="3.5" shape="-839.477828,-434.103909 -841.622639,-437.735564 -849.734036,-455.196710 "/>
  <edge id="75045387" from="243990702" to="1358272772" numLanes="2" width="3.5" shape="-855.353800,-413.450346 -853.153752,-408.850433 "/>
  <edge id="75045388" from="237493097" to="237492293" numLanes="2" width="3.5" shape="-626.643008,757.152931 -626.848496,747.426940 "/>
  <edge id="75277112" from="3739981703" to="Custom1723" numLanes="4" width="3.5" shape="-659.622772,808.308759 -672.878336,915.245213 -672.883201,915.285416 -688.550932,1047.964494 -692.271414,1078.926497 -700.783954,1134.773591 "/>
  <edge id="75277195" from="237492590" to="5667041986" numLanes="4" width="3.5" shape="-1150.032417,745.279145 -1148.196896,749.646662 "/>
  <edge id="75414320" from="243988610" to="566531242" numLanes="4" width="3.5" shape="-745.479304,-25.654872 -745.154291,-102.353949 "/>
  <edge id="75414321" from="9162375998" to="4723137679" numLanes="1" width="4.0" shape="-926.173024,-80.762344 -933.150218,-79.776369 -933.330789,-79.742326 -933.507474,-79.691855 -933.678780,-79.625381 -933.843263,-79.543465 -933.999534,-79.446798 -945.738736,-71.416843 -962.938205,-61.169785 -962.994475,-61.134987 -970.858947,-56.089773 -971.033995,-55.963650 -971.194439,-55.819405 -971.338411,-55.658717 -971.464237,-55.483454 -971.570451,-55.295658 -973.338060,-51.734807 "/>
  <edge id="75414322" from="6973906044" to="Custom1724" numLanes="4" width="3.5" shape="-1133.281975,80.468627 -1157.184493,100.590549 -1157.273196,100.666495 -1216.600415,152.325428 -1217.083721,152.788716 -1265.306350,203.657278 "/>
  <edge id="75414323" from="566531236" to="148144956" numLanes="3" width="3.5" shape="-1031.601580,43.446094 -1031.516257,43.374705 -1002.032992,20.112731 "/>
  <edge id="75414324" from="566531239" to="566531241" numLanes="1" width="4.0" shape="-837.224519,53.942304 -822.665726,61.113889 -815.325079,65.879593 -802.008788,81.775279 -786.940177,103.843775 -778.638428,126.720909 -771.664418,154.786975 -768.431159,168.379654 "/>
  <edge id="75414325" from="566531239" to="890479406" numLanes="3" width="4.0" shape="-834.296297,49.444954 -820.457932,49.106873 -819.847053,49.060664 -819.244071,48.952404 -818.655272,48.783222 -798.607417,41.896822 -798.035801,41.667030 -797.490762,41.379834 -796.978047,41.038261 -777.757220,26.756056 -777.253431,26.337142 -776.798323,25.865793 -776.568618,25.600294 "/>
  <edge id="75489391" from="566531241" to="1852234175" numLanes="4" width="3.5" shape="-763.646615,196.797819 -755.652739,239.557941 "/>
  <edge id="75489392" from="566531259" to="3203995084" numLanes="3" width="3.5" shape="-757.077178,-232.360452 -765.557500,-267.484219 "/>
  <edge id="77181573" from="6935461982" to="1210167044" numLanes="1" width="4.0" shape="-951.274586,829.846943 -886.160312,836.712354 "/>
  <edge id="-77181573" to="6935461982" from="1210167044" numLanes="1" width="4.0" shape="-886.160312,836.712354 -951.274586,829.846943 "/>
  <edge id="96670626" from="6990252459" to="1119642669" numLanes="1" width="4.0" shape="1184.432753,-211.887961 1162.371736,-226.492786 1153.131776,-235.708671 1153.075411,-235.778780 "/>
  <edge id="-96670626" to="6990252459" from="1119642669" numLanes="1" width="4.0" shape="1153.075411,-235.778780 1153.131776,-235.708671 1162.371736,-226.492786 1184.432753,-211.887961 "/>
  <edge id="96679202" from="6957549893" to="1119655796" numLanes="1" width="4.0" shape="1094.217911,-527.546910 1078.311888,-561.789374 1067.874622,-584.945746 1063.685386,-596.242510 1059.741107,-607.207725 "/>
  <edge id="-96679202" to="6957549893" from="1119655796" numLanes="1" width="4.0" shape="1059.741107,-607.207725 1063.685386,-596.242510 1067.874622,-584.945746 1078.311888,-561.789374 1094.217911,-527.546910 "/>
  <edge id="104660445" from="1207246687" to="Custom1725" numLanes="1" width="4.0" shape="384.861736,411.497885 381.896437,404.781397 "/>
  <edge id="-104660445" to="1207246687" from="Custom1725" numLanes="1" width="4.0" shape="381.896437,404.781397 384.861736,411.497885 "/>
  <edge id="104660461" from="1601220994" to="6980206798" numLanes="1" width="4.0" shape="-2.009784,661.446927 23.728871,641.843853 38.045365,633.346172 "/>
  <edge id="-104660461" to="1601220994" from="6980206798" numLanes="1" width="4.0" shape="38.045365,633.346172 23.728871,641.843853 -2.009784,661.446927 "/>
  <edge id="104660471" from="4733003433" to="6979743704" numLanes="1" width="4.0" shape="29.032769,216.099817 29.904532,218.114500 29.934651,221.588758 29.240062,225.184671 "/>
  <edge id="104660498" from="1207256937" to="6980152592" numLanes="1" width="4.0" shape="335.447933,140.564377 354.951280,162.588837 358.647769,167.274610 361.287538,172.701619 "/>
  <edge id="-104660498" to="1207256937" from="6980152592" numLanes="1" width="4.0" shape="361.287538,172.701619 358.647769,167.274610 354.951280,162.588837 335.447933,140.564377 "/>
  <edge id="104660514" from="1601179098" to="1207252721" numLanes="1" width="4.0" shape="-434.847529,747.295310 -413.872028,748.932319 "/>
  <edge id="-104660514" to="1601179098" from="1207252721" numLanes="1" width="4.0" shape="-413.872028,748.932319 -434.847529,747.295310 "/>
  <edge id="104660530" from="1207253307" to="6980145079" numLanes="1" width="4.0" shape="439.192736,249.816898 441.998072,252.428457 450.998810,273.042741 "/>
  <edge id="-104660530" to="1207253307" from="6980145079" numLanes="1" width="4.0" shape="450.998810,273.042741 441.998072,252.428457 439.192736,249.816898 "/>
  <edge id="104660557" from="1207249487" to="1207246617" numLanes="1" width="4.0" shape="129.048952,253.779583 135.024131,256.535466 144.492965,255.756970 152.962787,251.656680 "/>
  <edge id="-104660557" to="1207249487" from="1207246617" numLanes="1" width="4.0" shape="152.962787,251.656680 144.492965,255.756970 135.024131,256.535466 129.048952,253.779583 "/>
  <edge id="104660607" from="1207252279" to="6979790127" numLanes="1" width="4.0" shape="-330.747902,610.913934 -303.342021,597.781233 "/>
  <edge id="-104660607" to="1207252279" from="6979790127" numLanes="1" width="4.0" shape="-303.342021,597.781233 -330.747902,610.913934 "/>
  <edge id="-104660612" to="1207257293" from="1207254380" numLanes="1" width="4.0" shape="-30.345174,523.081539 -20.198153,518.450617 "/>
  <edge id="104660639" from="1207245832" to="1207250126" numLanes="1" width="4.0" shape="-154.051651,569.043068 -164.453561,573.457362 -193.722974,586.030823 -216.873644,596.158011 -221.824451,597.752437 -227.031869,597.942927 -234.543214,596.896316 "/>
  <edge id="-104660639" to="1207245832" from="1207250126" numLanes="1" width="4.0" shape="-234.543214,596.896316 -227.031869,597.942927 -221.824451,597.752437 -216.873644,596.158011 -193.722974,586.030823 -164.453561,573.457362 -154.051651,569.043068 "/>
  <edge id="104660654" from="1207250245" to="6979648087" numLanes="1" width="4.0" shape="-343.665388,441.128322 -343.054905,432.900469 -343.049444,432.761828 -343.029296,428.450131 "/>
  <edge id="104660666" from="1215791592" to="1211887764" numLanes="1" width="4.0" shape="-356.609454,749.229218 -357.981751,745.975206 -362.237636,735.131739 -362.161776,730.985850 -359.092359,727.557108 -341.481163,719.891503 "/>
  <edge id="-104660666" to="1215791592" from="1211887764" numLanes="1" width="4.0" shape="-341.481163,719.891503 -359.092359,727.557108 -362.161776,730.985850 -362.237636,735.131739 -357.981751,745.975206 -356.609454,749.229218 "/>
  <edge id="104660671" from="Custom1726" to="1207256471" numLanes="1" width="4.0" shape="139.523505,287.643703 137.454177,288.308045 133.037379,289.714253 57.960171,262.211304 "/>
  <edge id="-104660671" to="Custom1726" from="1207256471" numLanes="1" width="4.0" shape="57.960171,262.211304 133.037379,289.714253 137.454177,288.308045 139.523505,287.643703 "/>
  <edge id="104660690" from="6980112919" to="6980112917" numLanes="1" width="4.0" shape="153.528411,199.410556 152.180191,199.092714 151.897398,199.047121 151.653353,199.025546 "/>
  <edge id="104660735" from="1207254946" to="6980135690" numLanes="1" width="4.0" shape="212.195367,219.458991 208.017732,209.591129 "/>
  <edge id="-104660735" to="1207254946" from="6980135690" numLanes="1" width="4.0" shape="208.017732,209.591129 212.195367,219.458991 "/>
  <edge id="104660751" from="6980175140" to="1601259272" numLanes="1" width="4.0" shape="316.300474,447.598380 311.353716,434.632588 297.139729,402.246643 291.269714,389.889356 283.511066,383.668835 278.881598,382.488138 273.674480,383.286672 255.873926,389.221121 252.302461,389.941470 245.513256,389.829135 "/>
  <edge id="-104660751" to="6980175140" from="1601259272" numLanes="1" width="4.0" shape="245.513256,389.829135 252.302461,389.941470 255.873926,389.221121 273.674480,383.286672 278.881598,382.488138 283.511066,383.668835 291.269714,389.889356 297.139729,402.246643 311.353716,434.632588 316.300474,447.598380 "/>
  <edge id="104660804" from="1207253375" to="6979790124" numLanes="1" width="4.0" shape="-374.762498,656.211047 -354.115044,646.892120 -353.953430,646.810172 -353.799897,646.713933 -353.655704,646.604193 -353.522036,646.481853 -353.399989,646.347917 -353.290565,646.203485 -344.803547,633.878580 -341.970745,632.426603 "/>
  <edge id="104660830" from="1207252613" to="1207256664" numLanes="1" width="4.0" shape="434.089676,393.457553 406.310922,407.931429 "/>
  <edge id="-104660830" to="1207252613" from="1207256664" numLanes="1" width="4.0" shape="406.310922,407.931429 434.089676,393.457553 "/>
  <edge id="104660863" from="1207255936" to="6979587032" numLanes="1" width="4.0" shape="-404.109798,435.554695 -405.523713,436.618333 -407.981510,439.294991 "/>
  <edge id="-104660863" to="1207255936" from="6979587032" numLanes="1" width="4.0" shape="-407.981510,439.294991 -405.523713,436.618333 -404.109798,435.554695 "/>
  <edge id="104660878" from="Custom1727" to="1207253307" numLanes="1" width="4.0" shape="324.528259,297.260581 353.174427,284.400083 429.879192,249.958701 "/>
  <edge id="-104660878" to="Custom1727" from="1207253307" numLanes="1" width="4.0" shape="429.879192,249.958701 353.174427,284.400083 324.528259,297.260581 "/>
  <edge id="104660943" from="1207253205" to="1207254881" numLanes="1" width="4.0" shape="465.054637,305.106067 488.148215,356.240034 489.586911,363.027459 487.331139,369.286009 "/>
  <edge id="-104660943" to="1207253205" from="1207254881" numLanes="1" width="4.0" shape="487.331139,369.286009 489.586911,363.027459 488.148215,356.240034 465.054637,305.106067 "/>
  <edge id="104660966" from="6979766315" to="1207256495" numLanes="1" width="4.0" shape="-266.614900,567.570422 -247.714675,557.699587 -210.380646,539.837604 -198.868232,531.241778 -193.430027,525.147486 -190.551526,518.114718 -188.273957,510.949576 -186.631980,501.031901 -185.946711,491.579028 -186.004463,487.245260 "/>
  <edge id="-104660966" to="6979766315" from="1207256495" numLanes="1" width="4.0" shape="-186.004463,487.245260 -185.946711,491.579028 -186.631980,501.031901 -188.273957,510.949576 -190.551526,518.114718 -193.430027,525.147486 -198.868232,531.241778 -210.380646,539.837604 -247.714675,557.699587 -266.614900,567.570422 "/>
  <edge id="104661009" from="2996440042" to="1207252278" numLanes="1" width="4.0" shape="-385.262365,441.990751 -381.730414,443.582791 -378.139895,444.495375 "/>
  <edge id="-104661009" to="2996440042" from="1207252278" numLanes="1" width="4.0" shape="-378.139895,444.495375 -381.730414,443.582791 -385.262365,441.990751 "/>
  <edge id="104661019" from="5239934429" to="6980104785" numLanes="1" width="4.0" shape="130.318277,235.576358 130.784666,233.619292 130.293905,231.220468 124.468525,219.139542 "/>
  <edge id="-104661019" to="5239934429" from="6980104785" numLanes="1" width="4.0" shape="124.468525,219.139542 130.293905,231.220468 130.784666,233.619292 130.318277,235.576358 "/>
  <edge id="104661040" from="6980133622" to="1207252346" numLanes="1" width="4.0" shape="218.882209,149.863578 219.034526,142.732652 221.235041,137.248013 225.071511,132.304303 228.475504,130.412145 233.036539,128.143536 270.415044,110.104790 281.584098,104.715301 287.902848,101.671949 293.855492,100.873059 299.742332,102.053150 "/>
  <edge id="-104661040" to="6980133622" from="1207252346" numLanes="1" width="4.0" shape="299.742332,102.053150 293.855492,100.873059 287.902848,101.671949 281.584098,104.715301 270.415044,110.104790 233.036539,128.143536 228.475504,130.412145 225.071511,132.304303 221.235041,137.248013 219.034526,142.732652 218.882209,149.863578 "/>
  <edge id="104661065" from="1207252944" to="6980154176" numLanes="1" width="4.0" shape="463.808325,380.606800 449.551765,386.595273 "/>
  <edge id="-104661065" to="1207252944" from="6980154176" numLanes="1" width="4.0" shape="449.551765,386.595273 463.808325,380.606800 "/>
  <edge id="104661074" from="1207256937" to="Custom1728" numLanes="1" width="4.0" shape="326.305617,140.191515 297.118298,151.981433 "/>
  <edge id="-104661074" to="1207256937" from="Custom1728" numLanes="1" width="4.0" shape="297.118298,151.981433 326.305617,140.191515 "/>
  <edge id="104661101" from="1601259272" to="1601259295" numLanes="1" width="4.0" shape="231.513482,389.764281 212.945607,389.695279 210.019264,389.895703 206.447890,390.803999 192.876059,397.576621 191.641483,398.682780 190.674234,400.352644 190.219021,402.409205 "/>
  <edge id="-104661101" to="1601259272" from="1601259295" numLanes="1" width="4.0" shape="190.219021,402.409205 190.674234,400.352644 191.641483,398.682780 192.876059,397.576621 206.447890,390.803999 210.019264,389.895703 212.945607,389.695279 231.513482,389.764281 "/>
  <edge id="104661146" from="1207255944" to="1207252279" numLanes="1" width="4.0" shape="-332.823063,621.017655 -333.465171,619.945010 "/>
  <edge id="-104661146" to="1207255944" from="1207252279" numLanes="1" width="4.0" shape="-333.465171,619.945010 -332.823063,621.017655 "/>
  <edge id="104661150" from="1207252294" to="Custom1729" numLanes="1" width="4.0" shape="-44.256437,501.479729 -50.340511,490.551015 -55.929956,483.146492 -63.589251,475.333922 -75.444338,465.776613 -87.498128,459.469747 "/>
  <edge id="-104661150" to="1207252294" from="Custom1729" numLanes="1" width="4.0" shape="-87.498128,459.469747 -75.444338,465.776613 -63.589251,475.333922 -55.929956,483.146492 -50.340511,490.551015 -44.256437,501.479729 "/>
  <edge id="104661176" from="1207249415" to="6979607169" numLanes="1" width="4.0" shape="-366.129424,412.672844 -366.734437,426.739297 "/>
  <edge id="104661187" from="1207249688" to="6980145082" numLanes="1" width="4.0" shape="372.179924,194.341456 373.505605,196.564687 378.448399,201.382521 401.824383,219.856106 "/>
  <edge id="-104661187" to="1207249688" from="6980145082" numLanes="1" width="4.0" shape="401.824383,219.856106 378.448399,201.382521 373.505605,196.564687 372.179924,194.341456 "/>
  <edge id="104661240" from="6980098042" to="1207251162" numLanes="1" width="4.0" shape="160.436400,183.412509 159.790305,181.931374 160.011650,179.465871 "/>
  <edge id="-104661240" to="6980098042" from="1207251162" numLanes="1" width="4.0" shape="160.011650,179.465871 159.790305,181.931374 160.436400,183.412509 "/>
  <edge id="104661292" from="Custom1730" to="1207249688" numLanes="1" width="4.0" shape="294.583307,224.861063 309.456896,217.822490 331.539532,208.005469 363.731435,193.741591 "/>
  <edge id="-104661292" to="Custom1730" from="1207249688" numLanes="1" width="4.0" shape="363.731435,193.741591 331.539532,208.005469 309.456896,217.822490 294.583307,224.861063 "/>
  <edge id="104661328" from="1244322602" to="1207254904" numLanes="1" width="4.0" shape="30.091310,271.832176 13.660099,279.247421 5.850963,283.629238 0.934771,287.766423 -3.444818,293.985026 "/>
  <edge id="-104661328" to="1244322602" from="1207254904" numLanes="1" width="4.0" shape="-3.444818,293.985026 0.934771,287.766423 5.850963,283.629238 13.660099,279.247421 30.091310,271.832176 "/>
  <edge id="104661334" from="1207253205" to="Custom1731" numLanes="1" width="4.0" shape="459.754485,303.088509 428.109439,317.187714 348.478721,353.024352 "/>
  <edge id="-104661334" to="1207253205" from="Custom1731" numLanes="1" width="4.0" shape="348.478721,353.024352 428.109439,317.187714 459.754485,303.088509 "/>
  <edge id="104961094" from="6935461976" to="1210167010" numLanes="1" width="4.0" shape="-804.347929,823.805359 -836.696267,820.460353 -836.925292,820.449881 -837.915604,820.461424 "/>
  <edge id="104961101" from="1210167037" to="1210167020" numLanes="1" width="4.0" shape="-726.168723,773.814999 -726.768901,775.219358 -726.839836,775.412196 -726.890612,775.611295 -726.920692,775.814553 -729.815990,806.029437 "/>
  <edge id="104961102" from="1210167011" to="Custom1732" numLanes="1" width="4.0" shape="-688.553955,778.952914 -684.128608,779.305407 -678.178118,781.521587 -674.856067,786.205190 -673.363470,793.350409 -677.043471,832.564571 "/>
  <edge id="107692632" from="1211887764" to="Custom1733" numLanes="1" width="4.0" shape="-338.090065,710.786238 -338.259572,710.432830 "/>
  <edge id="-107692632" to="1211887764" from="Custom1733" numLanes="1" width="4.0" shape="-338.259572,710.432830 -338.090065,710.786238 "/>
  <edge id="119060317" from="5136168588" to="1338531889" numLanes="1" width="4.0" shape="884.606215,168.379744 890.805342,171.096416 940.153509,192.730409 955.409984,195.166316 966.803919,194.652255 974.780874,192.171957 981.978417,188.630702 994.381214,180.443599 "/>
  <edge id="-119060317" to="5136168588" from="1338531889" numLanes="1" width="4.0" shape="994.381214,180.443599 981.978417,188.630702 974.780874,192.171957 966.803919,194.652255 955.409984,195.166316 940.153509,192.730409 890.805342,171.096416 884.606215,168.379744 "/>
  <edge id="119060318" from="5239884452" to="Custom1734" numLanes="1" width="4.0" shape="1090.102751,246.047830 1157.889211,238.959095 1176.526203,237.015381 1217.850951,234.154169 1229.655170,230.721255 1239.878187,224.901107 1247.852822,217.622711 1255.782651,209.725227 1256.383228,209.127938 1259.441959,206.583688 1263.213268,204.956704 1270.545431,203.692837 1338.572943,196.031727 "/>
  <edge id="-119060318" to="5239884452" from="Custom1734" numLanes="1" width="4.0" shape="1338.572943,196.031727 1270.545431,203.692837 1263.213268,204.956704 1259.441959,206.583688 1256.383228,209.127938 1255.782651,209.725227 1247.852822,217.622711 1239.878187,224.901107 1229.655170,230.721255 1217.850951,234.154169 1176.526203,237.015381 1157.889211,238.959095 1090.102751,246.047830 "/>
  <edge id="119060319" from="1338531863" to="1599373199" numLanes="2" width="4.0" shape="1064.933147,294.177059 1064.730812,295.642903 "/>
  <edge id="119805559" from="1358272727" to="1345103809" numLanes="1" width="4.0" shape="-683.739020,-472.185337 -683.604222,-472.500814 "/>
  <edge id="120719659" from="Custom1735" to="1119600893" numLanes="2" width="4.0" shape="1238.890343,-345.762055 1236.416774,-340.230464 1226.957843,-325.673122 1221.991856,-318.030894 1210.401782,-303.146932 1196.526717,-288.128690 1175.673744,-272.196961 1157.541376,-260.530626 1137.829843,-249.400697 "/>
  <edge id="121291660" from="2489562875" to="1358272624" numLanes="1" width="4.0" shape="-396.353265,-597.978498 -397.014619,-594.597730 -399.212043,-584.112231 -403.772059,-571.943843 -411.469174,-555.962938 "/>
  <edge id="121291661" from="1358272772" to="1358272770" numLanes="1" width="4.0" shape="-842.537393,-406.736604 -837.788116,-408.663652 "/>
  <edge id="121291664" from="1358272562" to="1358272554" numLanes="2" width="4.0" shape="-384.153474,-629.379239 -383.772362,-629.519286 "/>
  <edge id="121291665" from="6958023685" to="1358272680" numLanes="1" width="4.0" shape="-237.379322,-474.334873 -180.073041,-494.826585 -169.737508,-498.203554 -165.099498,-502.395875 -163.354366,-506.188792 "/>
  <edge id="-121291665" to="6958023685" from="1358272680" numLanes="1" width="4.0" shape="-163.354366,-506.188792 -165.099498,-502.395875 -169.737508,-498.203554 -180.073041,-494.826585 -237.379322,-474.334873 "/>
  <edge id="121291668" from="1358272748" to="1358272734" numLanes="1" width="4.0" shape="-721.337761,-459.621750 -721.457486,-461.730213 -721.477230,-461.919018 -721.514786,-462.105100 -721.569816,-462.286783 -721.641823,-462.462430 -721.730159,-462.630459 -721.834028,-462.789356 -721.952494,-462.937690 -722.491248,-463.550236 "/>
  <edge id="121291669" from="1358272721" to="1358272746" numLanes="1" width="4.0" shape="-719.736713,-464.787617 -719.604299,-463.407605 -719.577125,-463.219218 -719.532165,-463.034268 -719.469828,-462.854429 -719.390677,-462.681330 -719.295430,-462.516539 -719.184949,-462.361549 -719.060235,-462.217763 -717.644065,-460.733983 "/>
  <edge id="121291670" from="Custom1736" to="1358272643" numLanes="1" width="4.0" shape="-178.455760,-532.814409 -175.388844,-533.945595 "/>
  <edge id="-121291670" to="Custom1736" from="1358272643" numLanes="1" width="4.0" shape="-175.388844,-533.945595 -178.455760,-532.814409 "/>
  <edge id="121291671" from="Custom1737" to="1358272826" numLanes="1" width="4.0" shape="-714.311233,-334.703074 -712.367831,-339.851193 "/>
  <edge id="121291672" from="1358272880" to="566531266" numLanes="1" width="4.0" shape="-629.884393,-296.697853 -633.420910,-295.910413 -633.697310,-295.827544 -642.095583,-292.632911 "/>
  <edge id="121291676" from="6957980922" to="6957980921" numLanes="1" width="4.0" shape="-337.554688,-478.103148 -335.716289,-473.140074 -335.697888,-473.092284 -330.094098,-459.076497 "/>
  <edge id="121291677" from="6104682127" to="6957980934" numLanes="1" width="4.0" shape="-301.884726,-516.828574 -331.185892,-505.974710 "/>
  <edge id="-121291677" to="6104682127" from="6957980934" numLanes="1" width="4.0" shape="-331.185892,-505.974710 -301.884726,-516.828574 "/>
  <edge id="121291681" from="1358272751" to="5231427741" numLanes="1" width="4.0" shape="-740.099960,-443.440523 -736.301793,-438.845055 -736.175856,-438.706446 -736.037507,-438.580224 -735.887959,-438.467495 -735.728521,-438.369250 -728.382575,-434.304359 -728.193518,-434.212374 -727.995850,-434.140744 -727.791754,-434.090261 -727.583486,-434.061482 -727.373348,-434.054726 -715.189164,-434.303884 -714.979163,-434.319265 -714.771943,-434.356639 -705.826684,-436.461563 -705.670738,-436.504989 -702.032709,-437.678656 "/>
  <edge id="121293434" from="1358288057" to="1358288051" numLanes="1" width="4.0" shape="-1100.338660,-265.267795 -1095.545566,-274.854607 "/>
  <edge id="-121293434" to="1358288057" from="1358288051" numLanes="1" width="4.0" shape="-1095.545566,-274.854607 -1100.338660,-265.267795 "/>
  <edge id="121293435" from="1358287909" to="Custom1738" numLanes="1" width="4.0" shape="-1010.450415,-397.222073 -978.375317,-410.856471 -928.602565,-418.879595 "/>
  <edge id="121293437" from="1358287902" to="1358287908" numLanes="1" width="4.0" shape="-868.198032,-412.962720 -894.508466,-401.783707 "/>
  <edge id="121293439" from="1358287989" to="Custom1739" numLanes="1" width="4.0" shape="-1071.944033,-338.009291 -1087.773771,-345.305543 -1088.821647,-348.211863 -1087.182183,-352.552518 "/>