<?xml version="1.0" encoding="UTF-8"?>

<!-- generated on 2024-11-27 21:46:17 by Eclipse SUMO duarouter Version 1.20.0
<configuration xmlns:xsi="http://www.w3.org/2001/XMLSchema-instance" xsi:noNamespaceSchemaLocation="http://sumo.dlr.de/xsd/duarouterConfiguration.xsd">

    <input>
        <net-file value="./worldA1_net/sumo.net.xml"/>
        <route-files value="./worldA1_net/sumo.trip.xml"/>
    </input>

    <output>
        <output-file value="./worldA1_net/sumo.rout.xml"/>
    </output>

    <report>
        <ignore-errors value="true"/>
    </report>

</configuration>
-->

<routes xmlns:xsi="http://www.w3.org/2001/XMLSchema-instance" xsi:noNamespaceSchemaLocation="http://sumo.dlr.de/xsd/routes_file.xsd">
    <vehicle id="1" depart="1.00">
        <route edges="-747396451 -747396452 -747396453 -747396454 -748619395 -748619396 -681340232 -640093275 -747878619 -747878620 -747878621 -663990773 746736958 746736957 25098860 635730439 1210904834 663990778_2 746919744 746919742 663990777 746919743 663990776 667248725 541940536 652536000 652535999 536908836 652535998 536908834 638466078 541940542 745784025 638466079 745774974 -745774455 -464985798 -745774456 -745774094 -745774093 -104660830 -745773974 -104661065 -464985797 -104660943 -745773815 -745773816 -104660530 -745773817 -745773818 -104661187 -745772375 -104660498 -745772224 -647107656 -104661040 -745754244 -745754245"/>
    </vehicle>
    <vehicle id="9" depart="9.00">
        <route edges="745388566 745388565 745388564 541921346 -745388571 -673051954 -644918936 -673051955 -745386167 -745386168 -674873611 -172342475 -573704882 -676467856 573704883 173896144 746714736 638946001 640062959 652341053 573704885_1 573704885_2 663990775 512870225 724251090 655557741 744519333 655557743 746728834 640209293 480490544 480490545 480490540 745675397 644341527 644344013 656201835 228631228_1 228631228_2 652039874 480490552 639702164 745689708 640205353 745688717 646621092 104661009 -104661009"/>
    </vehicle>
    <vehicle id="22" depart="22.00">
        <route edges="-541940539 -644417779 430464154_1 -644333539 -430464155 -747878619 -747878620 -747878621 -663990773 746736958 746736957 25098860 635730439 746736954 -746736954"/>
    </vehicle>
    <vehicle id="26" depart="26.00">
        <route edges="-747355339 -430464155 640093275 681340232 748619396 748619395 747396454 747396453 747396452 747396451 157966055 747396450 640093274 640093273 640093272 747864322 640062960 633809027 512870223 655602240 633617699 745356717 745356718 745356719 541933858_1 541933858_2 -573704872 573704873 541933854 645122568 747772576 747772575 645122566 747772074 747772073 380518630 747772574 173166882_2 652027920 168242577 175878990 649538096 573713867 633796584 644626278 22278331_1 963695372 747563376 963695371 747563375 747576369 167293142_1 747581960 533249402 533249403 533249400 747584968"/>
    </vehicle>
    <vehicle id="32" depart="32.00">
        <route edges="745687685 465236809 745687684 745687683 745687682 745687546 104660654 745687574 745687544 745687545 656194368 104661176 745687547 -646621093 -104661009 -646621092 -745688717 -640205353 538766096 745690989 745690990 745690988 640197749 744520688 746732403 635652910 746732404 640198949 747485452 655555813 640209294 724251089 168241649 655554433 663990774 512870224 663990775 512870225 724251090 655557741 744519333 655557743 746728834 640209293 480490544 480490545 480490540 745675397 644341527 644344013 656201835 228631228_1 228631228_2 652039874 480490553 136810597 634751134 636821856 636821850 744914744 744914743 744914742"/>
    </vehicle>
    <vehicle id="33" depart="33.00">
        <route edges="-745700714 -745700713 -104660966 -745701278 745701278 104660966 745700713 745700714 646774590 745696578 646774760 745695202 745696579 640197745 640197749 744520688 746732403 635652910 746732404 640198949 747485452 655555813 640209294 724251089 168241649 655554433 663990774 512870224 663990775 512870225 724251090 655557741 744519333 655557743 746728834 640209293 480490544 480490545 480490540 745675397 644341527 646402878 646402877 241588658_1 241588658_2 -241588658_2 -241588658_1"/>
    </vehicle>
    <vehicle id="35" depart="35.00">
        <route edges="-745403480 -745403481 -745403479 -745402448 745402448 745403479 745403481 745403480 745402446 745402447 541921351 -745404386 -745404387 -541921332 -676697576 -745386166 -676697577 -644918936 -673051955 -745386167 -745386168 -674873611 -172342475 -573704882 -676467856 573704883 173896144 746714736 638946001 640062959 652341053 573704885_1 573704885_2 663990775 663990779 663990778_1 663990778_2 746919744 746919742 663990777 746919743 635730440 663990773 747878621 747878620 747878619"/>
    </vehicle>
    <vehicle id="37" depart="37.00">
        <route edges="646467971 745748141 745748140 -745748140 -745748141 -646467971 -745748142 -646467972 745745688 745745687 745745686 146912013 745745685 745745689 724251089 168241649 655554433 663990774 512870224 663990775 512870225 724251090 655557741 744519333 655557743 746728834 640209293 480490544 480490545 480490540 745675397 644341527 646402878 646402877 241588658_1 241588658_2"/>
    </vehicle>
    <vehicle id="46" depart="46.00">
        <route edges="745003297 597147085 -597147085 -745003297 -541933848 -745002852 -644257941_2 -644257941_1 541933847 146668474_1 146668474_2 744980884 744980416 581579791 735262119 481671871 481671872 481671869 539676361 480233402 541940535 635730437 746920992 746736958 746736957 25098860 635730439 746736956 512870224 663990775 512870225 724251090 655557741 744519333 655557743 746728834 747780784 464985726_1"/>
    </vehicle>
    <vehicle id="57" depart="57.00">
        <route edges="746953086 746953085 -746953085 -746953086 -746933064 -746952844 -746950701 -746950702 694230198 635634276 541940534 541940535 635730437 746920992 746736958 746736957 25098860 635730439 746736956 512870224 663990775 512870225 724251090 655557741 744519333 655557743 746728834 640209293 480490544 480490545 480490540 745675397 644341527 644344013 656201835 228631228_1 228631228_2 652039874 480490552 639702164 745689708 538766096 745690989 745690990 745690988 640197749 744520688 746732403 635652910 746732404 640198949 747485452 655555813 146912010 745745692 745745693 646758396 646467972 745748142"/>
    </vehicle>
    <vehicle id="59" depart="59.00">
        <route edges="639106547 161972823_1 161972823_3 161972823_2 119805563_1 -635299834 -635339798 -465236775_3 -465236775_2 -465236775_1 -741865399_2 -741865399_1 -399017460 -670135224 646718897 646157116 -741865396"/>
    </vehicle>
    <vehicle id="64" depart="64.00">
        <route edges="745773814 464985796 745773812 745773813 745773811 -745773974 -104661065 -464985797 -104660943 -745773815 -745773816 -104660530 -745773817 -745773818 -104661187 -745772375 -104660498 -745772224 -647107656 -104661040 -745754244 -745754245 -745749011 -745748928 -745748929 -104660735 -745748140 -745748141 -646467971 -745748142 -646467972 745745688 745745687 745745686 146912013 745745685 745745689 724251089 168241649 655554433 663990774 512870224 663990775 512870225 724251090 655557741 744519333 655557743 746728834 640209293 480490544 480490545 480490540 745675397 644341527 644344013 656201835 228631228_1 228631228_2 652039874 480490553 136810597 -634751130 -634772448 -140088090 635376991 745683804 745683803 140088089 745683802 745683801"/>
    </vehicle>
    <vehicle id="65" depart="65.00">
        <route edges="104661101 647082256 -647082256 -104661101 -104660751 -745774848 -745774455 -464985798 -745774456 -745774094 -745774093 -104660830 -745773974 -104661065 -464985797 -104660943 -745773815 -745773816 -104660530 -745773817 -745773818 -104661187 -745772375 -104660498 -745772224 -647107656 -104661040 -745754244 -745754245 -745749011 -745748928 -745748929 -104660735 -745748140 -745748141 -646467971 -745748142 -646467972 745745688 745745687 745745686 146912013 745745685 745745689 724251089 168241649 655554433 663990774 512870224 663990775 512870225 724251090 655557741 744519333 655557743 746728834 640209293 480490544 480490545 480490540 745675397 644341527 646402878 646402877 480490541_1 480490541_2 -480490541_2"/>
    </vehicle>
    <vehicle id="66" depart="66.00">
        <route edges="745773812 745773813 745773811 104660830 745774093 745774094 745774456 464985798 745774455 -745774974 -638466079 -745784025 -646467556 541940541 630091334_2 639056019 75007271"/>
    </vehicle>
    <vehicle id="69" depart="69.00">
        <route edges="743352291 743352290 121291665 743352289 743352288 -743352288 -743352289 -121291665 -743352290 -743352291 -743348187 -743348186 -465236788 -646343180 -647084757 743348196 121291677 743348195 465236787 121291680_1 121291680_2 121291680_3 645201009 741865392 646702322 646947564 741865393 646947562 345772924 -345772924 -646947562"/>
    </vehicle>
    <vehicle id="76" depart="76.00">
        <route edges="464985775 639936522 639936523 573713869 743297323 448937539 572168500 538766104"/>
    </vehicle>
    <vehicle id="79" depart="79.00">
        <route edges="-745701906 745701906 745701278 104660966 745700713 745700714 745696760_1 -848277278 745698442 745698440 745698975 745698974 745698973 745698439 -745699875 -533283755 -745699874 -646650883 -745744513 -646759394 -745744512 104660557 646758396 646467972 745748142 646467971 745748141 745748140 -745748140 -745748141"/>
    </vehicle>
    <vehicle id="83" depart="83.00">
        <route edges="-745748140 -745748141 -646467971 -745748142 -646467972 745745688 745745687 745745686 146912013 745745685 745745689 724251089 168241649 655554433 663990774 633808836 655553097 -747864322 -640093272 -640093273 541933860 747362960 646636087 747362957 747362955 541933852 747363005 -646952427 -541933851 541933851 646952427"/>
    </vehicle>
    <vehicle id="87" depart="87.00">
        <route edges="745386166 676697576 -676697576 -745386166 -676697577 -644918936 -673051955 673051956 745396476 745396475 745399890 745399887_1 745399887_2 745399887_3 464985744 745399888 745399889 745399892 745399891 745399893 745399894 745399896 745399895 745399898 745399897 745397841 -745397841 -745399897 -745399898 -745399895"/>
    </vehicle>
    <vehicle id="88" depart="88.00">
        <route edges="-640093273 640093273 640093272 747864322 640062960 633809027 512870223 655602240 633617699 745356717 745356718 745356719 639999881 641121025 745349346 745352719 745352718 745352717 745352716 541933859 745352715 541973322 541973321 464985783 464985784 745354229 745354228 745352714 745352713 464985786 745353568 745353567 745352803 -464985785 -745354227 745354227 464985785"/>
    </vehicle>
    <vehicle id="93" depart="93.00">
        <route edges="745710664 745711677 -104660639 104660639 -745711677 -745710664 745701278 104660966 745700713 745700714 646774590 745696578 646774760 745695202 745696579 640197745 640197749 744520688 746732403 635652910 746732404 640198949 747485452 655555813 640209294 724251089 168241649 655554433 663990774 633808836 655553097 -747864322 -640093272 -640093273 541933860 747362960 646636087 747362957 -747362957"/>
    </vehicle>
    <vehicle id="109" depart="109.00">
        <route edges="-674873611 -172342475 -573704882 -676467856 573704883 173896144 746714736 638946001 640062959 652341053 573704885_1 573704885_2 663990775 512870225 724251090 655557741 744519333 655557743 746728834 640209293 480490544 480490545 480490540 745675397 644341527 644344013 656201835 228631228_1 228631228_2 652039874 480490553 136810597 634751134 636821856 636821850 744914744 744914743 744914742 636821853 141901384_1 1136122274 141901384_3 744914741 744914740 744914739 744914738 640289042 744914737_1 1145117021"/>
    </vehicle>
    <vehicle id="112" depart="112.00">
        <route edges="-464985810 -791591277 -314681610 -746951984 -746951394 -464985808 -746951983 -746952237 -746952238 -746952236 -746952235 -746952528 -746952529 -746933063 -746952526 -746952845 -746952527 -746950700 -746950702 694230198 635634276 541940534 541940535 635730437 746920992 746736958 746736957 25098860 635730439 746736956 633808836 655553097 640062960 633809027 512870223 655602240 633617699 745356717 745356718 745356719 541933858_1 541933858_2 -573704872 573704873 541933854 645122568 747772576 747772575 645122566 747772074 747772073 380518630 747772574 173166882_2 652027920 168242577 175878990 649538096 573713867 633796584 644626278 22278331_1 22278331_2 22278331_3 635470894 746708136 634255234"/>
    </vehicle>
    <vehicle id="117" depart="117.00">
        <route edges="-745744509 -745744510 -104661019 -745744511 104660557 646758396 -646758396"/>
    </vehicle>
    <vehicle id="123" depart="123.00">
        <route edges="-745748142 -646467972 745745688 745745687 745745686 146912013 745745685 745745689 724251089 168241649 655554433 663990774 512870224 663990775 512870225 724251090 655557741 744519333 655557743 746728834 640209293 480490544 480490545 480490540 745675397 644341527 646402878 646402877 480490541_1 480490541_2 646402505 646402504_1 646402504_2 646402504_4 646402504_3 646402504_6 646402504_5 241588661_1"/>
    </vehicle>
    <vehicle id="128" depart="128.00">
        <route edges="-541921336 541921336 541921335 652341053 573704885_1 573704885_2 663990775 512870225 724251090 655557741 744519333 655557743 746728834 640209293 480490544 480490545 480490540 745675397 644341527 644344013 656201835 228631228_1 228631228_2 652039874 480490552 639702164 745689708 538766096 745690989 745690990 745690988 -640197745 -745696579 -745695202 -646774760 -745696578 -646774590 -745700714 -745700713 -104660966 -745701278 -745701906 -745706917 -104660607 -104661146 -745706908"/>
    </vehicle>
    <vehicle id="130" depart="130.00">
        <route edges="745774093 745774094 745774456 464985798 745774455 745774848"/>
    </vehicle>
    <vehicle id="134" depart="134.00">
        <route edges="646402877 -646402877 241588946 656201835 228631228_1 228631228_2 652039874 480490552 639702164 745689708 538766096 745690989 745690990 745690988 -640197745 -745696579 -745695202 -646774760 -745696578 -646774590 -745700714 -745700713 -104660966 -745701278 -745701906 -646771556 -745707518 -745709290 146902575_1 146902575_2 745707517 546907237 745710517 745710516 546907238 465236806 745710515 745710514 745710513 646768067 646764410_1 646764410_2 646764410_3 745781702 745781698 848316897 104660461 745781697 745781696 646764412 745784780 646467555 745784024 646467556 745784025 638466079 745774974 745774848 104660751 104661101 647082256 -647082256 -104661101"/>
    </vehicle>
    <vehicle id="135" depart="135.00">
        <route edges="745399894 745399896 745399895 745399898 745399897 745397841 -745397841 -745399897 -745399898 -745399895 -745399896 -745399894 -745399893 -745399891 -745399892 -745399889 -745399888 -464985744 -745399887_3 -745399887_2 -745399887_1 -745399890 -745396475 -745396476 -673051956 -745386167 -745386168 -674873611 -172342475 -573704882 -676467856 573704883 173896144 746714736 638946001 640062959 652341053 573704885_1 573704885_2 663990775 512870225 724251090 655557741 744519333 655557743 746728834 640209293 480490544 480490545 480490540 745675397 644341527 646402878 646402877 480490541_1 480490541_2 646402505 646402504_1 646402504_2 646402504_4 646402504_3 646402504_6 646402504_5 241588661_1 241588661_2 1149367432"/>
    </vehicle>
    <vehicle id="137" depart="137.00">
        <route edges="-646812453 541921348 745388567 745388566 745388565 745388564 541921346 -745388571 -673051954 -644918936 -673051955 -745386167 -745386168 -674873611 -172342475 -573704882 -676467856 573704883 173896144 746714736 638946001 640062959 652341053 573704885_1 573704885_2 663990775 663990779 663990778_1 663990778_2 746919744 746919742 663990777 746919743 663990776 667248725 541940536 652536000 652535999 536908836 652535998 536908834 638466078 541940542 745784025 638466079 745774974 -745774455 -464985798 -745774456 -745774094 -745774093 -104660830 -745773974 -104661065 -464985797 -104660943 -745773815 -745773816 -104660530 -745773817 -745773818 -104661187 -745772375 -104660498 -745772224 -647107656 -104661040 -745754244 -745754245 -745749011 -745748928 -745748929 -104660735 -745748140 -745748141 -646467971"/>
    </vehicle>
    <vehicle id="149" depart="149.00">
        <route edges="-541921351 -745402447 -745402446 -745403480 -745403481 -745403479 -745402448 745402448 745403479 745403481 745403480 745402446 745402447 541921351 -745404386 -745404387 -541921332 -676697576 -745386166 -676697577 -644918936 -673051955 -745386167 -745386168 -674873611 -172342475 -573704882 -676467856 573704883 173896144 746714736 638946001 640062959 652341053 573704885_1 573704885_2 663990775 512870225 724251090 655557741 744519333 655557743 746728834 640209293 480490544 480490545 480490540 745675397 644341527 644344013 656201835 228631228_1 228631228_2 652039874 480490552 639702164 745689708 538766096 745690989 745690990 745690988 -640197745 -745696579 -745695202 -646774760 -745696578 -646774590 -745700714 -745700713 -104660966 -745701278 745710664 745711677 -104660639 464985805 646768792 745785178"/>
    </vehicle>
    <vehicle id="155" depart="155.00">
        <route edges="746736957 25098860 635730439 746736956 512870224 663990775 512870225 724251090 655557741 744519333 655557743 746728834 640209293 480490544 480490545 480490540 745675397 644341527 644344013 656201835 228631228_1 228631228_2 652039874 480490552 639702164 745689708 538766096 745690989 745690990 745690988 640197749 744520688 746732403 635652910 746732404 104660471 745699528 -745698439 -745698973 -745698974"/>
    </vehicle>
    <vehicle id="161" depart="161.00">
        <route edges="745388571 -745388571 -673051954 -644918936 -673051955 -745386167 -745386168 -674873611 -172342475 -573704882 -676467856 573704883 173896144 746714736 638946001 640062959 652341053 573704885_1 573704885_2 663990775 663990779 663990778_1 663990778_2 746919744 746919742 663990777 746919743 663990776 667248725 541940536 652536000 652535999 536908836 652535998 536908834 638466078 541940542 -646467556 -745784024 -646467555 -745784780 745784780 646467555 745784024"/>
    </vehicle>
    <vehicle id="162" depart="162.00">
        <route edges="-157966055 -747396451 -747396452 -747396453 -747396454 -748619395 -748619396 -681340232 -640093275 -747878619 -747878620 -747878621 -663990773 746736958 746736957 25098860 635730439 746736956 512870224 663990775 512870225 724251090 655557741 744519333 655557743 746728834 640209293 480490544 480490545 480490540 745675397 644341527 644344013 656201835 228631228_1 228631228_2 652039874 480490553 136810597 634751134 636821856 636821850 744914744 744914743 744914742 636821853 141901384_1 1136122274 141901384_3 744914741 741865391"/>
    </vehicle>
    <vehicle id="170" depart="170.00">
        <route edges="745326443 745326442 -745326442 -745326443 -173551181 640173923 745323869 745323870 656122874 641124295 633617698 745314049 745314048 640173922 539676361 480233402 541940535 635730437 746920992 746736958 746736957 25098860 635730439 1210904834 663990778_2 746919744 746919742 663990777 746919743 663990776 667248725 541940536 652536000 652535999 536908836 652535998 536908834 638466078 541940542 745784025 638466079 745774974 745774848 104660751 -104660751 -745774848"/>
    </vehicle>
    <vehicle id="177" depart="177.00">
        <route edges="791601323 848070293 709687884 746953936 -709713271 -464985810 -791591277 -314681610 -746951984 -746951394 -464985808 -746951983 -746952237 -746952238 -746952236 -746952235 -746952528 -746952529 -746933063 -746952526 -746952845 -746952527 -746950700 -746950702 694230198 635634276 541940534 541940535 635730437 746920992 746736958 746736957 25098860 635730439 746736956 633808836 655553097 640062960 633809027 512870223 655602240 633617699 745356717 745356718 745356719 -745356719 -745356718 -745356717"/>
    </vehicle>
    <vehicle id="179" depart="179.00">
        <route edges="-644344013 644344013 656201835 228631228_1 228631228_2 652039874 480490552 639702164 745689708 538766096 745690989 745690990 745690988 640197749 744520688 746732403 635652910 746732404 640198949 747485452 655555813 146912010 745745692 745745693 646758396 646467972 745748142 646467971 745748141 745748140 104660735 745748929 745748928 -745747585 -646755111 745748740 104661240 464985795"/>
    </vehicle>
    <vehicle id="181" depart="181.00">
        <route edges="638912257 644708893 175878991 541933849 -745002851 -646646565 -646891691 -541933848 -745002852 -644257941_2 -644257941_1 541933847 146668474_1 146668474_2 744980884 744980416 581579791 735262119 481671871 481671872 481671869 539676361 480233402 541940535 635730437 746920992 746736958 746736957 25098860 635730439 746736956 512870224 663990775 512870225 724251090 655557741 744519333 655557743 746728834 640209293 480490544 480490545 480490540 745675397 644341527 644344013 656201835 228631228_1 228631228_2 652039874 480490552 639702164 745689708 538766096 745690989 745690990 745690988 640197749 744520688 746732403 635652910 746732404 104660471 745699528 -745699875 -533283755 -745699874 -646650883 646650883 745699874 533283755"/>
    </vehicle>
    <vehicle id="184" depart="184.00">
        <route edges="-104660530 -745773817 -745773818 -104661187 -745772375 -104660498 -745772224 -647107656 -104661040 -745754244 -745754245 -745749011 -745748928 -745748929 -104660735 -745748140 -745748141 -646467971 -745748142 -646467972 745745688 745745687 745745686 146912013 745745685 745745689 724251089 168241649 655554433 663990774 633808836 655553097 -747864322 -640093272 -640093273 541933860 747362960 646636087 747362957 747362955 541933852 747363005"/>
    </vehicle>
    <vehicle id="187" depart="187.00">
        <route edges="146668475_2 744982185 146668474_1 146668474_2 744980884 744980416 581579791 735262119 481671871 481671872 481671869 -640173922 646690567 -541972376"/>
    </vehicle>
    <vehicle id="192" depart="192.00">
        <route edges="228631228_1 228631228_2 652039874 480490553 136810597 634751134 636821856 636821850 744914744 744914743 744914742 636821853 141901384_1 1136122274"/>
    </vehicle>
    <vehicle id="193" depart="193.00">
        <route edges="-646636087 747362959 635253797 -747396450 -157966055 -747396451 -747396452 -747396453 -747396454 -748619395 -748619396 -681340232 -640093275 -747878619 -747878620 -747878621 -663990773 746736958 746736957 25098860 635730439 1210904834 663990778_2 746919744 746919742 663990777 746919743 663990776 667248725 541940536 445282912"/>
    </vehicle>
    <vehicle id="197" depart="197.00">
        <route edges="-104660461 -848316897 -745781698 745781698 848316897 104660461 745781697 745781696 646764412 745784780 646467555 745784024 646467556 745784025 638466079 745774974 -745774455 -464985798 -745774456 -745774094 -745774093 -104660830 -745773974 -104661065 -464985797 -104660943 104661334"/>
    </vehicle>
    <vehicle id="200" depart="200.00">
        <route edges="464985791 645205698 228362409 641124295 633617698 745314049 745314048 640173922 539676361 480233402 541940535 635730437 746920992 746736958 746736957 25098860 635730439 746736956 512870224 663990775 512870225 724251090 655557741 744519333 655557743 746728834 640209293 480490544 480490545 480490540 745675397 644341527 644344013 656201835 228631228_1 228631228_2 652039874 480490552 639702164 745689708 538766096 745690989 745690990 745690988 -640197745 -745696579 -745695202 -646774760 -745696578 -646774590 -745700714 -745700713 -104660966 -745701278 -745701906 -745706917"/>
    </vehicle>
    <vehicle id="202" depart="202.00">
        <route edges="745327739 633617697 745327741 745327740 649773389 745327742 640173923 745323869 745323870 656122874 641124295 633617698 745314049 745314048 640173922 539676361 480233402 541940535 635730437 746920992 746736958 746736957 25098860 635730439 746736956 512870224 663990775 512870225 724251090 655557741 744519333 655557743 746728834 640209293 480490544 480490545 480490540 745675397 644341527 644344013 656201835 228631228_1 228631228_2 652039874 480490553 136810597 634751134 636821856 636821850 744914744 744914743 744914742 636821853 141901384_1 1136122274 141901384_3 744914741 744914740 744914739 744914738 640289042 744914737_1 -744914737_1 -640289042 -744914738 -744914739"/>
    </vehicle>
    <vehicle id="206" depart="206.00">
        <route edges="646953263 -646953263 -644922572 -747367551 -633617700 633617697 745327741 745327740 649773389 745327742 640173923 745323869 745323870 656122874 641124295 633617698 745314049 745314048 640173922 539676361 480233402 541940535 635730437 746920992 746736958 746736957 25098860 635730439 1210904834 663990778_2 746919744 746919742 663990777 746919743 663990776 667248725 541940536 652536000 652535999 536908836 652535998 536908834 638466078 541940542 745784025 638466079 745774974 -745774455 -464985798 -745774456 -745774094 -745774093 -104660830 -745773974 -104661065 -464985797 -104660943 -745773815 -745773816"/>
    </vehicle>
    <vehicle id="207" depart="207.00">
        <route edges="-745396476 -673051956 -745386167 -745386168 -674873611 -172342475"/>
    </vehicle>
    <vehicle id="213" depart="213.00">
        <route edges="646621092 -646621092 -745688717 -640205353 538766096 745690989 745690990 745690988 640197749 744520688 746732403 635652910 746732404 640198949 747485452 655555813 146912010 745745692 745745693 646758396 646467972 745748142 646467971 745748141 745748140 104660735 745748929 745748928 745749011 745754245 745754244 104661040 647107656 745772224 104660498 745772375 104661187 745773818 745773817 104660530 745773816 745773815 104660943 464985797 -464985797 -104660943"/>
    </vehicle>
    <vehicle id="218" depart="218.00">
        <route edges="-745784780 745784780 646467555 745784024 646467556 745784025 638466079 745774974 -745774455 -464985798 -745774456 -745774094 -745774093 -104660830 -745773974 -104661065 -464985797 -104660943 -745773815 -745773816 -104660530 -745773817 -745773818 -104661187 -745772375 -104660498 -745772224 -647107656 -104661040 -745754244 -745754245 -745749011 -745748928 -745748929 -104660735 -745748140 -745748141 -646467971 -745748142 -646467972 -646758396 -104660557 745744512 646759394 745744513 646650883 745699874"/>
    </vehicle>
    <vehicle id="230" depart="230.00">
        <route edges="-541933852 -747362955 -747362957 -646636087 747362959 635253797 -747396450 -157966055 -747396451 -747396452 -747396453 -747396454 -748619395 -748619396 -681340232 -640093275 -747878619 -747878620 -747878621 -663990773 746736958 746736957 25098860 635730439 1210904834 663990778_2 746919744 746919742 663990777 746919743 663990776 667248725 541940536 652536000 652535999 536908836 652535998 536908834 638466078 541940542 745784025 638466079 745774974 -745774455 -464985798 -745774456 -745774094 -745774093 -104660830 -745773974 -104661065 -464985797 -104660943 -745773815 -745773816 -104660530 -745773817 -745773818 -104661187 104661187"/>
    </vehicle>
    <vehicle id="233" depart="233.00">
        <route edges="-745709290 745709290 745707518 646771556 745701906 745701278 104660966 745700713 745700714 646774590 745696578 646774760 745695202 745696579 640197745 640197749 744520688 746732403 635652910 746732404 640198949 747485452 655555813 640209294 724251089 168241649 655554433 663990774 512870224 663990775 512870225 724251090 655557741 744519333 655557743 746728834 640209293 480490544 480490545 480490540 745675397 644341527 644344013 656201835"/>
    </vehicle>
    <vehicle id="245" depart="245.00">
        <route edges="-745687548 -745687549 -465236808 104661176 745687547 -646621093 -104661009 -646621092 -745688717 -640205353 538766096 745690989 745690990 745690988 640197749 744520688 746732403 635652910 746732404 640198949 747485452 655555813 146912010 745745692 745745693 646758396 646467972 745748142 646467971 745748141 745748140 104660735 745748929 745748928 -745747585"/>
    </vehicle>
    <vehicle id="256" depart="256.00">
        <route edges="743348193 880452083 -465236788 -646343180 -647084757 743348196 121291677 743348195 465236787 121291680_1 121291680_2 121291680_3 645201009 741865392 646702322 646947564 741865393 646947562 345772924 121291672 479166485_2 655527902 746594850 533989674 444356121 745710927 174552490 745710929 22741543 632249504 439740108 35536644 173913074 479166364 479166365 173913043"/>
    </vehicle>
    <vehicle id="264" depart="264.00">
        <route edges="-140075865_2 -140075865_1 -646157116 -646718897 670135224 399017460 741865399_1 741865399_2 465236775_1 465236775_2 465236775_3 635339798 635299834 119805563_2 161972823_1 -643894422 -643899339 -741865395_3"/>
    </vehicle>
    <vehicle id="265" depart="265.00">
        <route edges="-646467972 -646758396 646758396 646467972 745748142 646467971 745748141 745748140 104660735 745748929 745748928 745749011 745754245 745754244 104661040 647107656 745772224 104660498 745772375 104661187 745773818 745773817 104660530 745773816 745773815 104660943 464985797 104661065 745773974 104660830 745774093 745774094 745774456 464985798 745774455 745774848 104660751 104661101 647082256"/>
    </vehicle>
    <vehicle id="266" depart="266.00">
        <route edges="581579791 735262119 481671871 481671872 481671869 539676361 480233402 541940535 635730437 746920992 746736958 746736957 25098860 635730439 746736956 512870224 663990775 512870225 724251090 655557741 744519333 655557743 746728834 640209293 480490544 480490545 480490540 745675397 644341527 644344013 656201835 228631228_1 228631228_2 652039874 480490552 639702164 745689708 538766096 745690989 745690990 745690988 640197749 744520688 746732403 635652910 746732404 104660471 745699528 -745699875 -533283755 -745699874 -646650883 -745744513 -646759394 -745744512 745744511 104661019 745744510 745744509 -745744509 -745744510"/>
    </vehicle>
    <vehicle id="274" depart="274.00">