<?xml version='1.0' encoding='UTF-8'?>
<nodes>
  <node id="10659307151" x="144.716916" y="174.64159" shape="146.185273,170.410050 148.412376,172.122945 148.949108,176.086771 144.984845,176.623562 141.020900,177.159420 140.485043,173.195476 142.220463,170.939468 146.185273,170.410050 146.185273,170.410050"/>
  <node id="10697136876" x="91.961307" y="-64.235372"/>
  <node id="11743161291" x="-137.487722" y="-209.760083" shape="-135.886541,-215.185599 -132.061287,-208.162022 -139.085783,-204.333648 -141.952781,-209.508588 -142.913238,-211.361264 -135.886541,-215.185599 -135.886541,-215.185599"/>
  <node id="1180720989" x="-204.046911" y="-117.134205" shape="-200.132143,-124.475632 -195.739444,-116.620430 -196.878987,-113.443559 -203.587445,-109.085050 -206.147214,-112.595576 -209.642218,-117.966398 -206.235936,-121.065893 -200.132143,-124.475632 -200.132143,-124.475632"/>
  <node id="1273414213" x="119.424328" y="178.060718" shape="123.120344,175.542888 123.656201,179.506832 122.030900,181.673613 118.087868,182.346291 115.789355,180.665900 115.159199,176.715849 119.109250,176.085693 119.156399,176.078746 123.120344,175.542888 123.120344,175.542888"/>
  <node id="1286" x="-113.60786" y="46.707865" shape="-111.990672,41.287099 -111.035869,43.046699 -110.088883,44.806076 -109.140049,46.568896 -109.942750,49.270475 -113.458882,51.177519 -116.271390,50.300636 -119.028626,45.090677 -111.990672,41.287099 -111.990672,41.287099"/>
  <node id="1287" x="102.298425" y="-69.665241" shape="103.759891,-75.021230 105.721967,-71.533224 107.637847,-68.021899 100.790763,-64.285933 99.674730,-66.043608 97.826902,-69.591218 97.002178,-71.330253 103.759891,-75.021230 103.759891,-75.021230"/>
  <node id="1288" x="-24.231914" y="-1.122295" shape="-21.966565,-6.305749 -19.765348,-1.345432 -20.410234,1.200368 -23.797036,3.328647 -26.876378,2.484200 -28.703789,-1.073969 -29.415368,-3.387644 -21.966565,-6.305749 -21.966565,-6.305749"/>
  <node id="1290" x="-211.644202" y="-127.386235" shape="-210.991205,-133.005274 -209.603278,-131.950782 -206.048895,-126.554042 -212.476395,-121.790928 -213.776357,-122.862737 -217.263241,-128.039232 -210.991205,-133.005274 -210.991205,-133.005274"/>
  <node id="21607118" x="82.018939" y="185.357294" shape="81.770753,180.892050 85.192641,181.797238 86.141922,185.682964 85.822197,187.710000 82.418729,189.811524 80.317205,186.408056 80.282479,186.349617 78.297832,182.876697 81.770753,180.892050 81.770753,180.892050"/>
  <node id="25609055" x="-114.481035" y="-167.194064" shape="-114.271933,-175.253610 -110.544729,-174.525878 -106.176731,-166.656914 -112.297036,-163.259582 -116.207498,-161.807105 -119.450026,-167.750058 -121.318484,-171.465983 -114.271933,-175.253610 -114.271933,-175.253610"/>
  <node id="2727238325" x="-49.224827" y="185.117119" shape="-49.652312,180.847984 -42.961517,181.015333 -42.451150,181.052488 -41.767084,186.997845 -46.884454,193.147034 -49.821423,190.702882 -52.319921,187.650968 -53.184208,182.725671 -49.652312,180.847984 -49.652312,180.847984"/>
  <node id="2727238408" x="-56.28641" y="163.42057"/>
  <node id="2729720008" x="-48.194864" y="-47.089029" shape="-46.600267,-52.516483 -42.766134,-45.498780 -49.785113,-41.660299 -50.839320,-43.482527 -53.622318,-48.683626 -46.600267,-52.516483 -46.600267,-52.516483"/>
  <node id="2729720445" x="-145.021703" y="-163.748264" shape="-146.350452,-168.162381 -141.948504,-160.312358 -142.820729,-159.823253 -144.021014,-160.748494 -147.622117,-165.547666 -147.222677,-167.673275 -146.350452,-168.162381 -146.350452,-168.162381"/>
  <node id="2729720459" x="-157.155094" y="-154.393658"/>
  <node id="609753" x="57.774512" y="142.977909" shape="57.473321,138.515927 60.127494,139.174821 62.228771,142.578442 61.526300,145.411854 58.078428,147.439706 55.164783,146.609619 53.303307,143.069152 54.024211,140.541673 57.473321,138.515927 57.473321,138.515927"/>
  <node id="609755" x="-120.175416" y="-177.787966" shape="-118.536560,-183.202220 -115.228012,-177.064645 -113.337967,-173.516047 -120.384518,-169.728420 -124.013842,-170.404438 -128.486131,-178.214600 -122.411560,-181.693047 -118.536560,-183.202220 -118.536560,-183.202220"/>
  <node id="6140830730" x="-224.07026" y="107.044102" shape="-222.205347,102.066944 -218.889593,108.231826 -220.567892,109.825004 -224.193561,111.514538 -225.861659,112.048189 -229.267860,105.932816 -225.773360,103.986415 -225.728137,103.961661 -222.205347,102.066944 -222.205347,102.066944"/>
  <node id="6190889602" x="5.727433" y="168.55331"/>
  <node id="659463" x="168.930943" y="-158.676569" shape="169.891868,-165.874202 173.572003,-164.306845 171.166544,-158.630873 170.734658,-157.812502 167.553026,-156.915505 164.070647,-164.096672 167.667727,-165.846247 169.891868,-165.874202 169.891868,-165.874202"/>
  <node id="79302" x="183.077485" y="77.152861" shape="184.655519,71.793774 185.168425,72.476541 188.442356,78.832344 181.465615,82.538432 180.460267,80.779177 178.606101,77.234876 177.760059,75.439682 184.655519,71.793774 184.655519,71.793774"/>
  <node id="79307" x="190.616747" y="-112.068378"/>
  <node id="79308" x="257.87502" y="37.160994" shape="258.084951,32.693788 259.703889,36.351525 259.396795,39.975990 257.187556,41.170295 255.807841,41.881169 252.876555,36.191919 254.427214,34.312726 258.084951,32.693788 258.084951,32.693788"/>
  <node id="8442815756" x="-81.235432" y="-185.427854"/>
  <node id="8442815761" x="-171.920614" y="-135.161452"/>
  <node id="8442815762" x="-180.632646" y="-130.092042" shape="-182.801334,-134.034984 -181.277136,-133.187948 -178.259511,-128.002011 -178.463958,-126.149100 -179.340168,-125.667169 -183.677543,-133.553054 -182.801334,-134.034984 -182.801334,-134.034984"/>
  <node id="8485604444" x="172.335652" y="82.711705"/>
  <node id="8559859037" x="-68.243319" y="-108.091079" shape="-65.771220,-111.817837 -63.778653,-108.349455 -64.488647,-105.661586 -67.934110,-103.629645 -70.710495,-104.361060 -72.707640,-107.826808 -69.239602,-109.825270 -65.771220,-111.817837 -65.771220,-111.817837"/>
  <node id="8562888715" x="-137.424115" y="3.240792" shape="-135.825844,-2.185582 -132.930837,2.329268 -131.998349,4.841125 -139.024448,8.666558 -142.850489,1.642521 -135.825844,-2.185582 -135.825844,-2.185582"/>
  <node id="9724450286" x="-147.339561" y="65.161661" shape="-147.511877,60.692846 -144.810852,61.473080 -142.871471,64.971480 -146.369880,66.910866 -149.868291,68.850228 -151.807652,65.351817 -151.018002,62.618225 -147.511877,60.692846 -147.511877,60.692846"/>
  <node id="9724493086" x="-54.945421" y="-59.456503" shape="-53.392731,-64.896094 -51.449280,-61.399954 -51.434395,-61.372931 -49.517967,-57.861906 -56.540018,-54.029049 -59.410893,-59.212453 -60.385012,-61.009193 -53.392731,-64.896094 -53.392731,-64.896094"/>
  <node id="Custom32" x="141.467655" y="-210.60506600000002"/>
  <node id="Custom33" x="-254.478048" y="-162.902109"/>
  <node id="Custom34" x="260.463218" y="219.759248"/>
  <node id="Custom35" x="216.754154" y="-271.530836"/>
  <node id="Custom36" x="-264.681409" y="-84.801001"/>
  <node id="Custom37" x="-134.262906" y="203.909985"/>
  <node id="Custom38" x="-137.900723" y="160.485868"/>
  <node id="Custom39" x="4.929519999999982" y="-247.339942"/>
  <node id="Custom40" x="118.637204" y="228.320154"/>
  <node id="Custom41" x="-10.458741000000003" y="201.06852"/>
  <node id="Custom42" x="-259.92815" y="-101.207088"/>
  <node id="Custom43" x="-219.171997" y="116.951565"/>
  <node id="Custom44" x="-24.348977000000005" y="-230.394291"/>
  <node id="Custom45" x="-27.564134" y="-214.836255"/>
  <node id="Custom46" x="-47.51657499999999" y="-72.945739"/>
  <node id="Custom47" x="-237.907931" y="19.651302"/>
  <node id="Custom48" x="-219.19303399999998" y="37.596698"/>
  <node id="Custom49" x="-243.37179" y="-0.127794"/>
  <node id="Custom50" x="-207.780358" y="16.246637999999994"/>
  <node id="Custom51" x="-150.274093" y="59.809112"/>
  <node id="Custom52" x="-131.206469" y="-17.15528799999999"/>
  <node id="Custom53" x="-205.91197" y="18.074665"/>
  <node id="Custom54" x="-202.948103" y="21.03912"/>
  <node id="Custom55" x="143.993405" y="169.10609499999998"/>
  <node id="Custom56" x="-196.81877500000002" y="-191.420995"/>
  <node id="Custom57" x="-238.566869" y="-319.938997"/>
  <node id="Custom58" x="108.309807" y="224.893013"/>
  <node id="Custom59" x="-275.476141" y="135.784173"/>
  <node id="Custom60" x="-212.011559" y="100.55838299999999"/>
  <node id="Custom61" x="-41.752476" y="-123.654087"/>
  <node id="Custom62" x="-74.646505" y="-104.39321000000001"/>
  <node id="Custom63" x="-193.752096" y="90.453816"/>
  <node id="Custom64" x="153.885812" y="173.400053"/>
</nodes>
