<?xml version='1.0' encoding='UTF-8'?>
<edges>
  <edge id="4014761" from="659463" to="Custom32" numLanes="1" width="4.0" shape="167.667727,-165.846247 163.593246,-174.223274 163.579576,-174.250840 156.831958,-187.597746 156.802310,-187.654139 152.145556,-196.179480 152.129602,-196.208129 147.635159,-204.124962 147.616166,-204.157692 143.187930,-211.625191 "/>
  <edge id="4747199" from="1290" to="1180720989" numLanes="1" width="4.0" shape="-209.262645,-124.172486 -206.668688,-120.672117 "/>
  <edge id="-4747199" to="1290" from="1180720989" numLanes="1" width="4.0" shape="-206.668688,-120.672117 -209.262645,-124.172486 "/>
  <edge id="5042468" from="Custom33" to="1290" numLanes="1" width="4.0" shape="-254.478048,-162.902109 -245.936883,-158.902202 -243.411645,-157.051477 -237.536663,-152.925627 -233.349376,-149.873333 -230.050767,-146.922644 -225.882387,-143.149179 -221.822277,-139.070862 -216.443381,-133.447524 -214.127223,-130.522253 "/>
  <edge id="-5042468" to="Custom33" from="1290" numLanes="1" width="4.0" shape="-214.127223,-130.522253 -216.443381,-133.447524 -221.822277,-139.070862 -225.882387,-143.149179 -230.050767,-146.922644 -233.349376,-149.873333 -237.536663,-152.925627 -243.411645,-157.051477 -245.936883,-158.902202 -254.478048,-162.902109 "/>
  <edge id="5089081" from="2727238325" to="6190889602" numLanes="1" width="4.0" shape="-42.363693,185.069442 -39.158565,185.302781 -37.004668,185.822900 -36.883936,185.848141 -33.878512,186.380336 -33.657562,186.406888 -31.432952,186.549310 -31.321147,186.553332 -29.182376,186.570417 -29.020667,186.565164 -28.859912,186.546858 -26.700744,186.212023 -26.440960,186.153805 -24.161483,185.480866 -23.955534,185.407612 -20.710989,184.049544 -20.589193,183.993698 -4.071728,175.739696 -4.068890,175.738276 -2.691422,175.047203 -2.686438,175.044693 6.629272,170.338439 "/>
  <edge id="5089087" from="609753" to="1288" numLanes="1" width="4.0" shape="57.473320,138.515927 56.239792,136.415677 36.487635,100.429283 36.413917,100.305730 31.788642,93.151763 31.711752,93.041189 25.652832,84.925251 20.605152,76.698115 18.611880,72.933111 14.481096,64.944708 14.461901,64.908502 -18.485330,4.271067 -18.549274,4.161778 -20.410234,1.200368 "/>
  <edge id="37045840" from="Custom34" to="79302" numLanes="1" width="7.9" shape="263.926991,217.860623 258.825117,208.552979 257.582686,206.279032 257.579543,206.273292 219.515352,136.880214 192.101944,85.699978 190.830307,83.327682 188.442357,78.832345 "/>
  <edge id="38845436" from="Custom35" to="659463" numLanes="1" width="4.0" shape="214.898902,-272.277857 210.282614,-260.813146 172.713559,-172.499498 169.891868,-165.874202 "/>
  <edge id="38845437" from="79307" to="79308" numLanes="1" width="4.0" shape="188.810161,-111.210329 193.803894,-100.696236 194.508670,-99.106769 194.510990,-99.101556 218.916200,-44.482152 218.918448,-44.477140 219.558645,-43.054864 223.278206,-34.681615 227.143191,-25.824540 227.151447,-25.805881 227.951425,-24.022494 227.952942,-24.019121 237.039325,-3.862770 237.044041,-3.852387 251.959778,28.737940 254.427213,34.312725 "/>
  <edge id="39825592" from="1180720989" to="Custom36" numLanes="2" width="3.0" shape="-209.210579,-117.760703 -215.944546,-114.137673 -215.959663,-114.129484 -254.242550,-93.248638 -265.999940,-87.495714 "/>
  <edge id="48201675" from="Custom37" to="Custom38" numLanes="1" width="4.0" shape="-132.279126,204.164187 -130.811273,192.709140 -129.446349,187.787690 -129.406996,187.617141 -129.382706,187.443805 -129.014038,183.593376 -129.005017,183.421063 -129.010882,183.248613 -129.459808,177.441025 -129.479613,177.275241 -129.513176,177.111687 -129.560265,176.951502 -132.187061,169.223719 -132.228330,169.113132 -136.048398,159.731618 "/>
  <edge id="93540738" from="6190889602" to="609753" numLanes="1" width="4.0" shape="6.601619,170.352143 49.194843,149.652941 51.564877,148.501211 51.621457,148.472598 55.164783,146.609618 "/>
  <edge id="118749704" from="659463" to="79307" numLanes="1" width="4.0" shape="167.698852,-156.608313 173.984802,-143.366611 183.371613,-123.275628 183.372828,-123.273031 184.125180,-121.668744 188.791480,-111.250820 "/>
  <edge id="140779281" from="79302" to="8485604444" numLanes="1" width="4.0" shape="178.606101,77.234875 173.595666,79.856034 171.448167,80.919396 "/>
  <edge id="140779282" from="79308" to="79302" numLanes="1" width="6.4" shape="252.876555,36.191919 244.887463,40.308158 244.813559,40.347467 242.440814,41.649621 221.485049,53.126111 192.896136,68.452913 190.727135,69.613720 185.168636,72.476433 "/>
  <edge id="160372962" from="1286" to="2727238408" numLanes="1" width="4.0" shape="-113.458882,51.177519 -112.031116,53.809977 -110.023996,57.986891 -109.975300,58.081677 -107.361561,62.852071 -78.319975,116.318730 -75.974645,120.684125 -75.973119,120.686960 -67.135986,137.072312 -63.748623,143.418538 -61.838467,148.174902 -60.600739,152.405853 -59.718400,156.701611 -59.717847,156.704297 -58.244959,163.825651 "/>
  <edge id="178853326" from="25609055" to="8442815761" numLanes="2" width="3.0" shape="-119.534351,-167.700416 -124.692206,-164.663969 -172.555676,-138.236883 -173.368608,-137.788868 "/>
  <edge id="178853327" from="1290" to="2729720459" numLanes="2" width="3.0" shape="-206.492237,-126.815314 -199.667695,-130.604260 -185.089148,-138.613093 -182.546362,-139.741370 -178.789716,-141.081496 -173.163608,-142.665928 -172.930183,-142.742105 -172.703769,-142.837116 -167.514830,-145.268892 -167.340368,-145.357706 -155.707562,-151.765988 "/>
  <edge id="231919281" from="1287" to="Custom39" numLanes="1" width="7.7" shape="103.759892,-75.021229 101.169637,-79.763660 101.162731,-79.776248 100.102267,-81.700729 39.422510,-192.691944 21.905545,-225.118210 20.579012,-227.583762 20.535269,-227.662826 16.317367,-235.079780 14.837304,-237.679930 8.278036,-249.239926 "/>
  <edge id="267237042" from="Custom40" to="1273414213" numLanes="1" width="4.0" shape="119.831073,229.924734 122.990328,227.574126 123.200127,227.394227 125.888116,224.745883 126.014890,224.608738 126.128318,224.460365 126.227411,224.302059 126.311305,224.135200 127.590119,221.265154 127.654711,221.101094 127.704603,220.931982 127.739407,220.759134 127.758852,220.583892 127.998459,216.981565 128.000240,216.746318 127.974385,216.512490 122.030900,181.673613 "/>
  <edge id="267256048" from="2727238408" to="2727238325" numLanes="1" width="4.0" shape="-58.237822,163.858740 -55.724424,175.052284 -55.712081,175.104022 -54.945132,178.139626 -54.902946,178.283623 -54.035312,180.879911 -53.977021,181.033140 -53.567639,181.989377 -53.494995,182.141086 -53.184208,182.725671 "/>
  <edge id="267256049" from="2727238325" to="Custom41" numLanes="1" width="4.0" shape="-44.325769,190.072440 -43.108963,191.085069 -40.576398,192.651008 -38.827548,193.513805 -35.074018,194.832134 -32.187582,195.652124 -17.454742,199.334814 -10.458741,201.068520 "/>
  <edge id="-267256049" to="2727238325" from="Custom41" numLanes="1" width="4.0" shape="-10.458741,201.068520 -17.454742,199.334814 -32.187582,195.652124 -35.074018,194.832134 -38.827548,193.513805 -40.576398,192.651008 -43.108963,191.085069 -44.325769,190.072440 "/>
  <edge id="267529331" from="Custom42" to="1290" numLanes="2" width="3.0" shape="-258.545149,-98.544888 -250.231570,-102.863754 -250.164951,-102.899435 -219.030662,-120.082979 -214.058971,-122.713223 "/>
  <edge id="655426884" from="6140830730" to="Custom43" numLanes="1" width="4.0" shape="-224.193561,111.514538 -223.045962,113.977237 -222.993166,114.082347 -220.932035,117.901442 "/>
  <edge id="909306578" from="609755" to="Custom44" numLanes="2" width="3.0" shape="-115.217685,-177.070263 -109.168007,-180.362091 -109.157106,-180.368052 -22.904205,-227.765102 "/>
  <edge id="909306581" from="8442815756" to="25609055" numLanes="3" width="3.0" shape="-83.391317,-189.377811 -107.128414,-176.422116 -107.156528,-176.406641 -110.544729,-174.525878 "/>
  <edge id="909306583" from="Custom45" to="8442815756" numLanes="3" width="3.0" shape="-29.716926,-218.787898 -39.799211,-213.295230 -39.808104,-213.290373 -57.656968,-203.514413 -57.661881,-203.511718 -83.402030,-189.371945 "/>
  <edge id="909306584" from="8442815761" to="8442815762" numLanes="2" width="3.0" shape="-173.429426,-137.754421 -181.277136,-133.187948 "/>
  <edge id="909306585" from="2729720445" to="609755" numLanes="3" width="3.0" shape="-141.948505,-160.312358 -126.989672,-168.700615 -126.954501,-168.720545 -124.013842,-170.404438 "/>
  <edge id="909306586" from="2729720459" to="2729720445" numLanes="2" width="3.0" shape="-155.415182,-151.949746 -152.497312,-154.027086 -152.341148,-154.146155 -146.832235,-158.639068 -144.021014,-160.748494 "/>
  <edge id="909306587" from="8442815762" to="1180720989" numLanes="3" width="3.0" shape="-183.677544,-133.553053 -197.169672,-126.132145 -197.197333,-126.116804 -200.132142,-124.475633 "/>
  <edge id="913473545" from="8485604444" to="609753" numLanes="1" width="4.0" shape="171.397910,80.945172 124.099735,106.052823 62.954396,137.436899 62.817025,137.514399 60.127495,139.174821 "/>
  <edge id="922015019" from="8559859037" to="Custom46" numLanes="1" width="4.0" shape="-67.934110,-103.629646 -49.239307,-71.929769 "/>
  <edge id="922401282" from="2729720008" to="8562888715" numLanes="1" width="4.0" shape="-52.696736,-47.025286 -54.482359,-46.108217 -60.637748,-43.255497 -60.705521,-43.222523 -76.978577,-34.922154 -77.027219,-34.896494 -126.875625,-7.717977 -127.067201,-7.599047 -132.822092,-3.559921 -133.002996,-3.416690 -133.166199,-3.253577 -135.081522,-1.104523 -135.340554,-0.877567 "/>
  <edge id="977640112" from="79302" to="1287" numLanes="1" width="7.8" shape="184.655519,71.793775 181.674406,66.155632 181.637172,66.086888 180.766799,64.517713 111.337240,-61.264349 110.214423,-63.299684 107.637847,-68.021898 "/>
  <edge id="1058191598" from="Custom47" to="Custom48" numLanes="1" width="4.0" shape="-239.292155,21.094882 -220.577258,39.040278 "/>
  <edge id="1058278314" from="Custom49" to="Custom50" numLanes="1" width="4.0" shape="-243.605001,1.858563 -223.457497,4.224011 -209.151852,17.702318 "/>
  <edge id="1058281950" from="9724450286" to="Custom51" numLanes="1" width="4.0" shape="-147.511876,60.692845 -148.040733,59.729795 -148.516997,58.853804 "/>
  <edge id="1058291232" from="9724493086" to="Custom52" numLanes="1" width="4.0" shape="-59.432515,-59.200123 -61.252559,-58.162270 -132.175035,-18.905111 "/>
  <edge id="1058323609" from="Custom53" to="Custom54" numLanes="1" width="4.0" shape="-207.326324,19.488738 -204.362457,22.453193 "/>
  <edge id="1061427216" from="1287" to="10697136876" numLanes="1" width="4.0" shape="97.826902,-69.591217 93.060604,-67.108615 93.029580,-67.092107 91.006369,-65.992668 "/>
  <edge id="1145361829" from="10659307151" to="Custom55" numLanes="1" width="4.0" shape="146.185273,170.410049 145.975810,168.841385 "/>
  <edge id="1263965693" from="11743161291" to="Custom56" numLanes="1" width="4.0" shape="-141.977070,-209.494685 -143.480205,-208.634220 -162.398726,-197.825759 -163.591046,-197.574007 -164.565689,-198.305495 -168.374385,-203.685983 -168.501431,-203.847226 -168.644337,-203.994596 -168.801595,-204.126542 -170.761328,-205.606318 -170.934029,-205.723106 -171.117949,-205.821282 -171.311090,-205.899779 -171.511353,-205.957743 -171.716562,-205.994545 -171.924487,-206.009784 -172.132869,-206.003296 -172.339443,-205.975151 -174.752041,-205.517266 -174.951491,-205.468689 -175.144911,-205.399924 -175.330263,-205.311695 -197.769918,-193.180349 "/>
  <edge id="4093357_1" from="10697136876" to="1288" numLanes="1" width="4.0" shape="91.008340,-65.993739 -18.806501,-6.478365 -18.836102,-6.461997 -21.562902,-4.923955 "/>
  <edge id="4093357_2" from="1288" to="1286" numLanes="1" width="4.0" shape="-28.703789,-1.073969 -31.560616,0.393245 -31.592629,0.410054 -108.676647,41.776852 -108.678839,41.778030 -111.035867,43.046699 "/>
  <edge id="4252517_1" from="Custom57" to="11743161291" numLanes="1" width="4.0" shape="-238.566869,-319.938997 -202.229918,-309.864082 -198.186288,-308.555513 -194.299836,-306.775543 -191.167122,-304.718799 -188.163729,-301.552179 -186.033057,-298.671323 -183.655343,-294.586826 -139.399890,-213.273432 "/>
  <edge id="-4252517_1" to="Custom57" from="11743161291" numLanes="1" width="4.0" shape="-139.399890,-213.273432 -183.655343,-294.586826 -186.033057,-298.671323 -188.163729,-301.552179 -191.167122,-304.718799 -194.299836,-306.775543 -198.186288,-308.555513 -202.229918,-309.864082 -238.566869,-319.938997 "/>
  <edge id="4252517_2" from="11743161291" to="609755" numLanes="1" width="4.0" shape="-135.573535,-206.247835 -133.862620,-203.108560 -127.931858,-192.178480 -124.105492,-185.130043 -122.290889,-181.740044 "/>
  <edge id="-4252517_2" to="11743161291" from="609755" numLanes="1" width="4.0" shape="-122.290889,-181.740044 -124.105492,-185.130043 -127.931858,-192.178480 -133.862620,-203.108560 -135.573535,-206.247835 "/>
  <edge id="5089086_1" from="609753" to="21607118" numLanes="1" width="4.0" shape="58.078428,147.439706 59.392122,149.673324 61.365348,153.141542 69.510975,167.492584 69.513438,167.496911 74.114759,175.556764 78.297832,182.876696 "/>
  <edge id="5089086_2" from="21607118" to="Custom58" numLanes="1" width="4.0" shape="82.418730,189.811524 86.739858,196.809692 86.769927,196.856899 95.415139,210.019288 95.444231,210.062351 102.110825,219.659253 102.126292,219.681202 106.682701,226.055994 "/>
  <edge id="178853330_1" from="1180720989" to="8562888715" numLanes="1" width="4.0" shape="-200.233216,-111.264305 -200.223601,-111.249506 -197.225823,-106.175232 -185.389793,-85.065354 -181.308289,-77.557070 -170.094451,-56.944436 -158.882927,-36.247818 -149.371980,-18.683777 -139.338166,-0.271530 "/>
  <edge id="-178853330_1" to="1180720989" from="8562888715" numLanes="1" width="4.0" shape="-139.338166,-0.271530 -149.371980,-18.683777 -158.882927,-36.247818 -170.094451,-56.944436 -181.308289,-77.557070 -185.389793,-85.065354 -197.225823,-106.175232 -200.223601,-111.249506 -200.233216,-111.264305 "/>
  <edge id="178853330_2" from="8562888715" to="1286" numLanes="1" width="4.0" shape="-135.511399,6.753842 -121.979874,31.606936 -117.199261,40.062514 -115.509649,43.188888 "/>
  <edge id="-178853330_2" to="8562888715" from="1286" numLanes="1" width="4.0" shape="-115.509649,43.188888 -117.199261,40.062514 -121.979874,31.606936 -135.511399,6.753842 "/>
  <edge id="179095464_1" from="1288" to="2729720008" numLanes="1" width="4.0" shape="-25.690967,-4.846696 -26.800680,-7.679368 -28.887860,-11.784582 -46.275624,-43.579539 "/>
  <edge id="-179095464_1" to="1288" from="2729720008" numLanes="1" width="4.0" shape="-46.275624,-43.579539 -28.887860,-11.784582 -26.800680,-7.679368 -25.690967,-4.846696 "/>
  <edge id="221069101_1" from="Custom59" to="6140830730" numLanes="1" width="7.0" shape="-273.723419,138.813689 -270.025974,136.674537 -268.756767,135.942675 -268.112260,135.581341 -225.861660,112.048189 "/>
  <edge id="221069101_2" from="6140830730" to="Custom60" numLanes="1" width="7.0" shape="-218.889594,108.231826 -210.353682,103.640824 "/>
  <edge id="312712970_2" from="1273414213" to="21607118" numLanes="1" width="4.0" shape="115.159199,176.715850 88.821418,180.917549 88.661855,180.949711 85.192641,181.797239 "/>
  <edge id="465240244_1" from="Custom61" to="8559859037" numLanes="1" width="4.0" shape="-42.768798,-125.376611 -64.928419,-112.302022 -65.771220,-111.817837 "/>
  <edge id="465240244_2" from="8559859037" to="Custom62" numLanes="1" width="4.0" shape="-72.707640,-107.826808 -73.699084,-107.255486 -73.704430,-107.252394 -75.650424,-106.122992 "/>
  <edge id="884806335_1" from="1286" to="9724450286" numLanes="1" width="4.0" shape="-118.111186,46.748679 -119.695067,47.551407 -119.760624,47.586175 -144.810851,61.473079 "/>
  <edge id="884806335_2" from="9724450286" to="Custom63" numLanes="1" width="4.0" shape="-151.807652,65.351817 -171.576916,76.311007 -174.874850,78.134684 -194.692204,88.688541 "/>
  <edge id="179095464_2" from="2729720008" to="9724493086" numLanes="1" width="4.0" shape="-50.111292,-50.600055 -53.028992,-55.945477 "/>
  <edge id="-179095464_2" to="2729720008" from="9724493086" numLanes="1" width="4.0" shape="-53.028992,-55.945477 -50.111292,-50.600055 "/>
  <edge id="179095464_3" from="9724493086" to="25609055" numLanes="1" width="4.0" shape="-56.888871,-62.952644 -107.304245,-153.646603 -110.696176,-159.838971 -112.430819,-163.209891 "/>
  <edge id="-179095464_3" to="9724493086" from="25609055" numLanes="1" width="4.0" shape="-112.430819,-163.209891 -110.696176,-159.838971 -107.304245,-153.646603 -56.888871,-62.952644 "/>
  <edge id="312712970_1" from="Custom64" to="10659307151" numLanes="1" width="4.0" shape="153.617446,171.418140 148.412377,172.122945 "/>
  <edge id="312712970_3" from="10659307151" to="1273414213" numLanes="1" width="4.0" shape="140.485042,173.195476 123.120343,175.542888 "/>
</edges>
