<?xml version="1.0" encoding="UTF-8"?>

<!-- generated on 2024-12-02 19:20:20 by Eclipse SUMO netedit Version v1_21_0+1074-1c0ffc0f6ce
<neteditConfiguration xmlns:xsi="http://www.w3.org/2001/XMLSchema-instance" xsi:noNamespaceSchemaLocation="http://sumo.dlr.de/xsd/neteditConfiguration.xsd">

    <input>
        <sumo-net-file value="/Users/OBSiDIAN/Downloads/Shelves/VSCode/Repositories/THP/ASP2_Korseon/webots/worlds/worldA3_net/sumo.net.xml"/>
    </input>

    <output>
        <output-file value="/Users/OBSiDIAN/Downloads/Shelves/VSCode/Repositories/THP/ASP2_Korseon/webots/worlds/worldA3_net/sumo.net.xml"/>
    </output>

    <processing>
        <geometry.min-radius.fix.railways value="false"/>
        <geometry.max-grade.fix value="false"/>
        <offset.disable-normalization value="true"/>
        <lefthand value="0"/>
    </processing>

    <junctions>
        <no-turnarounds value="true"/>
        <junctions.corner-detail value="5"/>
        <junctions.limit-turn-speed value="5.50"/>
        <rectangular-lane-cut value="0"/>
    </junctions>

    <pedestrian>
        <walkingareas value="0"/>
    </pedestrian>

</neteditConfiguration>
-->

<net version="1.20" junctionCornerDetail="5" limitTurnSpeed="5.50" xmlns:xsi="http://www.w3.org/2001/XMLSchema-instance" xsi:noNamespaceSchemaLocation="http://sumo.dlr.de/xsd/net_file.xsd">

    <location netOffset="275.48,319.94" convBoundary="9.48,0.00,539.40,549.86" origBoundary="-275.48,-319.94,263.93,229.92" projParameter="!"/>

    <edge id=":10659307151_0" function="internal">
        <lane id=":10659307151_0_0" index="0" speed="13.89" length="8.00" width="4.00" shape="424.16,494.04 416.23,495.11"/>
    </edge>
    <edge id=":10659307151_1" function="internal">
        <lane id=":10659307151_1_0" index="0" speed="5.70" length="6.43" width="4.00" shape="424.16,494.04 422.40,494.03 421.06,493.45 420.16,492.31 419.68,490.62"/>
    </edge>
    <edge id=":10697136876_0" function="internal">
        <lane id=":10697136876_0_0" index="0" speed="13.89" length="0.30" width="4.00" shape="367.57,255.64 367.30,255.78"/>
    </edge>
    <edge id=":11743161291_0" function="internal">
        <lane id=":11743161291_0_0" index="0" speed="5.07" length="4.90" width="4.00" shape="138.14,114.65 137.21,113.19 136.28,112.29 135.38,111.95 134.49,112.18"/>
    </edge>
    <edge id=":11743161291_1" function="internal">
        <lane id=":11743161291_1_0" index="0" speed="13.89" length="7.99" width="4.00" shape="138.14,114.65 134.32,107.63"/>
    </edge>
    <edge id=":11743161291_2" function="internal">
        <lane id=":11743161291_2_0" index="0" speed="4.08" length="1.99" width="4.00" shape="138.14,114.65 138.30,112.85 138.41,112.69"/>
    </edge>
    <edge id=":11743161291_6" function="internal">
        <lane id=":11743161291_6_0" index="0" speed="4.08" length="3.85" width="4.00" shape="138.41,112.69 138.94,111.93 140.06,111.89 141.66,112.73"/>
    </edge>
    <edge id=":11743161291_3" function="internal">
        <lane id=":11743161291_3_0" index="0" speed="13.89" length="7.99" width="4.00" shape="137.84,105.71 141.66,112.73"/>
    </edge>
    <edge id=":11743161291_4" function="internal">
        <lane id=":11743161291_4_0" index="0" speed="6.35" length="2.73" width="4.00" shape="137.84,105.71 138.33,107.42 138.11,108.34"/>
    </edge>
    <edge id=":11743161291_5" function="internal">
        <lane id=":11743161291_5_0" index="0" speed="4.08" length="1.99" width="4.00" shape="137.84,105.71 137.68,107.51 137.57,107.67"/>
    </edge>
    <edge id=":11743161291_7" function="internal">
        <lane id=":11743161291_7_0" index="0" speed="6.35" length="5.43" width="4.00" shape="138.11,108.34 137.94,109.06 136.66,110.65 134.49,112.18"/>
    </edge>
    <edge id=":11743161291_8" function="internal">
        <lane id=":11743161291_8_0" index="0" speed="4.08" length="3.85" width="4.00" shape="137.57,107.67 137.04,108.43 135.92,108.47 134.32,107.63"/>
    </edge>
    <edge id=":1180720989_0" function="internal">
        <lane id=":1180720989_0_0" index="0" speed="5.89" length="6.73" width="3.00" shape="73.52,209.69 72.15,207.67 70.85,206.40 69.64,205.87 68.51,206.08"/>
    </edge>
    <edge id=":1180720989_1" function="internal">
        <lane id=":1180720989_1_0" index="0" speed="13.89" length="11.00" width="4.00" shape="73.52,209.69 71.90,207.02 70.58,205.04 69.19,203.12 67.32,200.62"/>
    </edge>
    <edge id=":1180720989_2" function="internal">
        <lane id=":1180720989_2_0" index="0" speed="4.08" length="2.00" width="4.00" shape="73.52,209.69 73.58,207.89 73.69,207.72"/>
    </edge>
    <edge id=":1180720989_10" function="internal">
        <lane id=":1180720989_10_0" index="0" speed="4.08" length="3.84" width="4.00" shape="73.69,207.72 74.17,206.94 75.28,206.84 76.92,207.59"/>
    </edge>
    <edge id=":1180720989_3" function="internal">
        <lane id=":1180720989_3_0" index="0" speed="5.67" length="6.80" width="4.00" shape="78.98,202.02 77.34,203.20 76.45,204.53 76.31,205.99 76.92,207.59"/>
    </edge>
    <edge id=":1180720989_4" function="internal">
        <lane id=":1180720989_4_0" index="0" speed="13.89" length="11.37" width="3.00" shape="78.98,202.02 75.97,203.43 73.76,204.08 71.54,204.71 68.51,206.08"/>
        <lane id=":1180720989_4_1" index="1" speed="13.89" length="11.37" width="3.00" shape="77.53,199.39 74.46,200.84 72.21,201.50 69.96,202.16 66.87,203.56"/>
    </edge>
    <edge id=":1180720989_6" function="internal">
        <lane id=":1180720989_6_0" index="0" speed="7.01" length="9.63" width="4.00" shape="76.07,196.77 74.42,197.69 71.59,199.18 68.81,200.42 67.32,200.62"/>
    </edge>
    <edge id=":1180720989_7" function="internal">
        <lane id=":1180720989_7_0" index="0" speed="13.89" length="11.41" width="4.00" shape="70.49,198.17 72.39,200.73 73.87,202.77 75.26,204.86 76.92,207.59"/>
    </edge>
    <edge id=":1180720989_8" function="internal">
        <lane id=":1180720989_8_0" index="0" speed="5.77" length="2.02" width="3.00" shape="70.49,198.17 70.95,199.43 70.73,200.08"/>
    </edge>
    <edge id=":1180720989_9" function="internal">
        <lane id=":1180720989_9_0" index="0" speed="4.08" length="2.01" width="4.00" shape="70.49,198.17 70.61,199.97 70.52,200.16"/>
    </edge>
    <edge id=":1180720989_11" function="internal">
        <lane id=":1180720989_11_0" index="0" speed="5.77" length="5.33" width="3.00" shape="70.73,200.08 70.50,200.75 69.14,202.13 66.87,203.56"/>
    </edge>
    <edge id=":1180720989_12" function="internal">
        <lane id=":1180720989_12_0" index="0" speed="4.08" length="3.83" width="4.00" shape="70.52,200.16 70.12,200.98 69.03,201.19 67.32,200.62"/>
    </edge>
    <edge id=":1273414213_0" function="internal">
        <lane id=":1273414213_0_0" index="0" speed="5.72" length="6.44" width="4.00" shape="395.54,501.95 395.00,500.26 394.06,499.14 392.71,498.60 390.96,498.62"/>
    </edge>
    <edge id=":1273414213_1" function="internal">
        <lane id=":1273414213_1_0" index="0" speed="13.89" length="7.99" width="4.00" shape="398.86,497.46 390.96,498.62"/>
    </edge>
    <edge id=":1286_0" function="internal">
        <lane id=":1286_0_0" index="0" speed="5.70" length="6.45" width="4.00" shape="165.39,364.75 163.97,365.80 163.22,367.05 163.16,368.51 163.78,370.16"/>
    </edge>
    <edge id=":1286_1" function="internal">
        <lane id=":1286_1_0" index="0" speed="13.89" length="8.03" width="4.00" shape="165.39,364.75 158.27,368.47"/>
    </edge>
    <edge id=":1286_2" function="internal">
        <lane id=":1286_2_0" index="0" speed="6.30" length="8.12" width="4.00" shape="165.39,364.75 162.96,365.77 160.95,366.00 159.37,365.44 158.21,364.08"/>
    </edge>
    <edge id=":1286_3" function="internal">
        <lane id=":1286_3_0" index="0" speed="13.89" length="8.32" width="4.00" shape="161.73,362.18 162.60,364.45 162.75,366.17 162.90,367.90 163.78,370.16"/>
    </edge>
    <edge id=":1286_4" function="internal">
        <lane id=":1286_4_0" index="0" speed="6.25" length="8.13" width="4.00" shape="161.73,362.18 162.23,363.90 161.82,365.52 160.50,367.05 158.27,368.47"/>
    </edge>
    <edge id=":1286_5" function="internal">
        <lane id=":1286_5_0" index="0" speed="4.08" length="5.84" width="4.00" shape="161.73,362.18 161.56,363.98 160.92,364.89 159.80,364.93 158.21,364.08"/>
    </edge>
    <edge id=":1287_0" function="internal">
        <lane id=":1287_0_0" index="0" speed="6.20" length="6.48" width="4.00" shape="379.69,253.79 378.63,252.37 377.36,251.62 375.89,251.54 374.22,252.12"/>
    </edge>
    <edge id=":1287_1" function="internal">
        <lane id=":1287_1_0" index="0" speed="13.89" length="8.00" width="7.70" shape="379.69,253.79 375.86,246.77"/>
    </edge>
    <edge id=":1288_0" function="internal">
        <lane id=":1288_0_0" index="0" speed="5.94" length="6.60" width="4.00" shape="253.38,322.20 252.22,320.84 250.89,320.12 249.38,320.06 247.69,320.65"/>
    </edge>
    <edge id=":1288_1" function="internal">
        <lane id=":1288_1_0" index="0" speed="13.89" length="8.49" width="4.00" shape="253.38,322.20 251.80,320.26 250.39,319.14 249.11,317.97 247.93,315.82"/>
    </edge>
    <edge id=":1288_2" function="internal">
        <lane id=":1288_2_0" index="0" speed="13.89" length="8.19" width="4.00" shape="254.89,316.76 247.69,320.65"/>
    </edge>
    <edge id=":1288_3" function="internal">
        <lane id=":1288_3_0" index="0" speed="6.05" length="8.19" width="4.00" shape="254.89,316.76 252.43,317.85 250.45,318.05 248.95,317.37 247.93,315.82"/>
    </edge>
    <edge id=":1288_4" function="internal">
        <lane id=":1288_4_0" index="0" speed="6.54" length="8.21" width="4.00" shape="251.65,314.36 251.93,316.08 251.36,317.70 249.94,319.23 247.69,320.65"/>
    </edge>
    <edge id=":1288_5" function="internal">
        <lane id=":1288_5_0" index="0" speed="4.08" length="5.84" width="4.00" shape="251.65,314.36 251.27,316.12 250.52,316.95 249.41,316.85 247.93,315.82"/>
    </edge>
    <edge id=":1290_0" function="internal">
        <lane id=":1290_0_0" index="0" speed="13.89" length="7.93" width="4.00" shape="64.60,196.96 59.78,190.66"/>
    </edge>
    <edge id=":1290_1" function="internal">
        <lane id=":1290_1_0" index="0" speed="5.74" length="1.87" width="3.00" shape="64.60,196.96 64.22,195.80 64.46,195.20"/>
    </edge>
    <edge id=":1290_2" function="internal">
        <lane id=":1290_2_0" index="0" speed="4.08" length="1.98" width="4.00" shape="64.60,196.96 64.51,195.16 64.59,195.01"/>
    </edge>
    <edge id=":1290_10" function="internal">
        <lane id=":1290_10_0" index="0" speed="5.74" length="5.31" width="3.00" shape="64.46,195.20 64.72,194.55 66.10,193.20 68.35,191.75"/>
    </edge>
    <edge id=":1290_11" function="internal">
        <lane id=":1290_11_0" index="0" speed="4.08" length="3.87" width="4.00" shape="64.59,195.01 65.02,194.16 66.12,193.97 67.82,194.58"/>
    </edge>
    <edge id=":1290_3" function="internal">
        <lane id=":1290_3_0" index="0" speed="5.12" length="4.33" width="3.00" shape="62.92,188.18 63.81,189.07 64.73,189.54 65.69,189.60 66.70,189.24"/>
    </edge>
    <edge id=":1290_4" function="internal">
        <lane id=":1290_4_0" index="0" speed="13.89" length="8.06" width="4.00" shape="62.92,188.18 67.82,194.58"/>
    </edge>
    <edge id=":1290_5" function="internal">
        <lane id=":1290_5_0" index="0" speed="4.08" length="2.01" width="4.00" shape="62.92,188.18 63.07,189.98 62.98,190.16"/>
    </edge>
    <edge id=":1290_12" function="internal">
        <lane id=":1290_12_0" index="0" speed="4.08" length="3.83" width="4.00" shape="62.98,190.16 62.59,190.99 61.50,191.22 59.78,190.66"/>
    </edge>
    <edge id=":1290_6" function="internal">
        <lane id=":1290_6_0" index="0" speed="4.02" length="3.27" width="4.00" shape="59.17,193.33 59.93,192.78 60.28,192.15 60.23,191.45 59.78,190.66"/>
    </edge>
    <edge id=":1290_7" function="internal">
        <lane id=":1290_7_0" index="0" speed="13.89" length="8.55" width="3.00" shape="59.17,193.33 66.70,189.24"/>
        <lane id=":1290_7_1" index="1" speed="13.89" length="8.55" width="3.00" shape="60.86,195.83 68.35,191.75"/>
    </edge>
    <edge id=":1290_9" function="internal">
        <lane id=":1290_9_0" index="0" speed="6.30" length="7.48" width="4.00" shape="60.86,195.83 63.42,194.63 65.43,194.02 66.89,194.00 67.82,194.58"/>
    </edge>
    <edge id=":21607118_0" function="internal">
        <lane id=":21607118_0_0" index="0" speed="5.26" length="6.53" width="4.00" shape="361.15,503.68 359.53,504.37 358.73,505.43 358.75,506.87 359.59,508.70"/>
    </edge>
    <edge id=":21607118_1" function="internal">
        <lane id=":21607118_1_0" index="0" speed="13.89" length="7.99" width="4.00" shape="355.51,501.83 359.59,508.70"/>
    </edge>
    <edge id=":25609055_0" function="internal">
        <lane id=":25609055_0_0" index="0" speed="4.51" length="3.70" width="3.00" shape="161.16,157.43 160.53,156.47 159.83,155.93 159.06,155.82 158.22,156.12"/>
    </edge>
    <edge id=":25609055_1" function="internal">
        <lane id=":25609055_1_0" index="0" speed="4.08" length="2.23" width="4.00" shape="161.16,157.43 161.45,155.65 161.72,155.32"/>
    </edge>
    <edge id=":25609055_5" function="internal">
        <lane id=":25609055_5_0" index="0" speed="4.08" length="3.62" width="4.00" shape="161.72,155.32 162.16,154.78 163.28,154.82 164.81,155.78"/>
    </edge>
    <edge id=":25609055_2" function="internal">
        <lane id=":25609055_2_0" index="0" speed="5.34" length="5.66" width="4.00" shape="168.56,151.97 166.66,153.13 165.40,154.15 164.78,155.03 164.81,155.78"/>
    </edge>
    <edge id=":25609055_3" function="internal">
        <lane id=":25609055_3_0" index="0" speed="13.89" length="11.21" width="3.00" shape="167.11,149.35 164.33,151.15 162.64,152.68 160.95,154.24 158.22,156.12"/>
        <lane id=":25609055_3_1" index="1" speed="13.89" length="11.21" width="3.00" shape="165.66,146.72 162.87,148.53 161.17,150.06 159.49,151.63 156.75,153.51"/>
    </edge>
    <edge id=":2727238325_0" function="internal">
        <lane id=":2727238325_0_0" index="0" speed="6.94" length="4.79" width="4.00" shape="229.87,511.55 226.48,508.16"/>
    </edge>
    <edge id=":2727238325_1" function="internal">
        <lane id=":2727238325_1_0" index="0" speed="4.08" length="1.80" width="4.00" shape="229.87,511.55 229.36,509.82"/>
    </edge>
    <edge id=":2727238325_4" function="internal">
        <lane id=":2727238325_4_0" index="0" speed="6.94" length="12.71" width="4.00" shape="226.48,508.16 225.73,507.41 224.92,504.61 227.42,503.15 233.25,503.02"/>
    </edge>
    <edge id=":2727238325_5" function="internal">
        <lane id=":2727238325_5_0" index="0" speed="4.08" length="4.04" width="4.00" shape="229.36,509.82 229.61,508.73 230.63,508.28 232.43,508.47"/>
    </edge>
    <edge id=":2727238325_2" function="internal">
        <lane id=":2727238325_2_0" index="0" speed="8.60" length="9.34" width="4.00" shape="224.06,501.72 225.55,502.29 228.46,502.67 231.46,502.91 233.25,503.02"/>
    </edge>
    <edge id=":2727238325_3" function="internal">
        <lane id=":2727238325_3_0" index="0" speed="13.89" length="10.92" width="4.00" shape="224.06,501.72 225.81,504.19 227.68,505.56 229.82,506.69 232.43,508.47"/>
    </edge>
    <edge id=":2727238408_0" function="internal">
        <lane id=":2727238408_0_0" index="0" speed="13.89" length="0.29" width="4.00" shape="219.16,483.22 219.22,483.50"/>
    </edge>
    <edge id=":2729720008_0" function="internal">
        <lane id=":2729720008_0_0" index="0" speed="5.21" length="5.05" width="4.00" shape="227.45,277.32 226.48,275.82 225.53,274.88 224.61,274.51 223.69,274.69"/>
    </edge>
    <edge id=":2729720008_1" function="internal">
        <lane id=":2729720008_1_0" index="0" speed="13.89" length="8.00" width="4.00" shape="227.45,277.32 223.61,270.30"/>
    </edge>
    <edge id=":2729720008_2" function="internal">
        <lane id=":2729720008_2_0" index="0" speed="4.08" length="1.99" width="4.00" shape="227.45,277.32 227.60,275.52 227.71,275.37"/>
    </edge>
    <edge id=":2729720008_6" function="internal">
        <lane id=":2729720008_6_0" index="0" speed="4.08" length="3.85" width="4.00" shape="227.71,275.37 228.24,274.61 229.36,274.56 230.95,275.40"/>
    </edge>
    <edge id=":2729720008_3" function="internal">
        <lane id=":2729720008_3_0" index="0" speed="13.89" length="8.00" width="4.00" shape="227.12,268.38 230.95,275.40"/>
    </edge>
    <edge id=":2729720008_4" function="internal">
        <lane id=":2729720008_4_0" index="0" speed="6.25" length="2.73" width="4.00" shape="227.12,268.38 227.63,270.11 227.41,271.01"/>
    </edge>
    <edge id=":2729720008_5" function="internal">
        <lane id=":2729720008_5_0" index="0" speed="4.08" length="1.99" width="4.00" shape="227.12,268.38 226.96,270.18 226.85,270.34"/>
    </edge>
    <edge id=":2729720008_7" function="internal">
        <lane id=":2729720008_7_0" index="0" speed="6.25" length="5.40" width="4.00" shape="227.41,271.01 227.23,271.74 225.92,273.26 223.69,274.69"/>
    </edge>
    <edge id=":2729720008_8" function="internal">
        <lane id=":2729720008_8_0" index="0" speed="4.08" length="3.85" width="4.00" shape="226.85,270.34 226.32,271.10 225.20,271.14 223.61,270.30"/>
    </edge>
    <edge id=":2729720445_0" function="internal">
        <lane id=":2729720445_0_0" index="0" speed="13.89" length="2.52" width="3.00" shape="128.76,155.59 129.86,153.09"/>
        <lane id=":2729720445_0_1" index="1" speed="13.89" length="2.52" width="3.00" shape="128.76,155.59 131.33,155.71"/>
        <lane id=":2729720445_0_2" index="2" speed="13.89" length="2.52" width="3.00" shape="130.56,157.99 132.80,158.32"/>
    </edge>
    <edge id=":2729720459_0" function="internal">
        <lane id=":2729720459_0_0" index="0" speed="13.89" length="0.35" width="3.00" shape="117.46,164.31 117.50,164.28 117.53,164.26 117.56,164.24 117.61,164.21"/>
        <lane id=":2729720459_0_1" index="1" speed="13.89" length="0.35" width="3.00" shape="118.91,166.93 119.04,166.86 119.13,166.80 119.22,166.75 119.35,166.66"/>
    </edge>
    <edge id=":609753_0" function="internal">
        <lane id=":609753_0_0" index="0" speed="5.76" length="6.50" width="4.00" shape="336.65,460.81 335.28,461.95 334.59,463.25 334.59,464.72 335.27,466.36"/>
    </edge>
    <edge id=":609753_1" function="internal">
        <lane id=":609753_1_0" index="0" speed="5.66" length="6.40" width="4.00" shape="336.65,460.81 335.03,461.51 333.59,461.52 332.32,460.84 331.23,459.46"/>
    </edge>
    <edge id=":609753_2" function="internal">
        <lane id=":609753_2_0" index="0" speed="5.60" length="6.37" width="4.00" shape="329.71,464.78 331.13,463.75 331.86,462.52 331.89,461.09 331.23,459.46"/>
    </edge>
    <edge id=":609753_3" function="internal">
        <lane id=":609753_3_0" index="0" speed="5.83" length="6.52" width="4.00" shape="329.71,464.78 331.38,464.18 332.86,464.25 334.16,464.97 335.27,466.36"/>
    </edge>
    <edge id=":609755_0" function="internal">
        <lane id=":609755_0_0" index="0" speed="4.63" length="3.82" width="3.00" shape="155.07,137.47 155.74,138.46 156.47,139.03 157.26,139.18 158.11,138.92"/>
    </edge>
    <edge id=":609755_1" function="internal">
        <lane id=":609755_1_0" index="0" speed="4.08" length="2.23" width="4.00" shape="155.07,137.47 154.80,139.25 154.54,139.59"/>
    </edge>
    <edge id=":609755_5" function="internal">
        <lane id=":609755_5_0" index="0" speed="4.08" length="3.62" width="4.00" shape="154.54,139.59 154.11,140.13 152.99,140.11 151.44,139.17"/>
    </edge>
    <edge id=":609755_2" function="internal">
        <lane id=":609755_2_0" index="0" speed="5.33" length="5.66" width="4.00" shape="147.73,143.02 149.62,141.83 150.87,140.79 151.48,139.91 151.44,139.17"/>
    </edge>
    <edge id=":609755_3" function="internal">
        <lane id=":609755_3_0" index="0" speed="13.89" length="11.13" width="3.00" shape="149.22,145.62 151.96,143.78 153.64,142.23 155.34,140.70 158.11,138.92"/>
        <lane id=":609755_3_1" index="1" speed="13.89" length="11.13" width="3.00" shape="150.71,148.23 153.43,146.39 155.10,144.85 156.79,143.33 159.54,141.55"/>
    </edge>
    <edge id=":6190889602_0" function="internal">
        <lane id=":6190889602_0_0" index="0" speed="13.89" length="0.29" width="4.00" shape="281.08,488.56 281.34,488.43"/>
    </edge>
    <edge id=":659463_0" function="internal">
        <lane id=":659463_0_0" index="0" speed="9.00" length="8.02" width="4.00" shape="447.21,154.84 446.03,157.76 445.27,160.00 444.92,161.57 444.98,162.47"/>
    </edge>
    <edge id=":659463_1" function="internal">
        <lane id=":659463_1_0" index="0" speed="5.47" length="9.00" width="4.00" shape="447.21,154.84 445.80,157.29 444.36,158.13 442.87,157.35 441.34,154.97"/>
    </edge>
    <edge id=":79302_0" function="internal">
        <lane id=":79302_0_0" index="0" speed="6.18" length="6.47" width="4.00" shape="460.43,400.62 459.39,399.19 458.14,398.43 456.68,398.35 455.01,398.94"/>
    </edge>
    <edge id=":79302_1" function="internal">
        <lane id=":79302_1_0" index="0" speed="13.89" length="8.00" width="7.80" shape="460.43,400.62 456.68,393.56"/>
    </edge>
    <edge id=":79302_2" function="internal">
        <lane id=":79302_2_0" index="0" speed="13.89" length="7.99" width="4.00" shape="462.11,395.26 455.01,398.94"/>
    </edge>
    <edge id=":79302_3" function="internal">
        <lane id=":79302_3_0" index="0" speed="6.02" length="0.23" width="7.80" shape="462.11,395.26 461.89,395.34"/>
    </edge>
    <edge id=":79302_4" function="internal">
        <lane id=":79302_4_0" index="0" speed="6.02" length="6.24" width="7.80" shape="461.89,395.34 460.44,395.84 458.98,395.75 457.72,394.99 456.68,393.56"/>
    </edge>
    <edge id=":79307_0" function="internal">
        <lane id=":79307_0_0" index="0" speed="13.89" length="0.28" width="4.00" shape="466.04,207.75 466.16,208.00"/>
    </edge>
    <edge id=":79308_0" function="internal">
        <lane id=":79308_0_0" index="0" speed="5.88" length="6.59" width="6.40" shape="531.73,353.44 532.22,355.18 532.07,356.68 531.27,357.94 529.82,358.97"/>
    </edge>
    <edge id=":8442815756_0" function="internal">
        <lane id=":8442815756_0_0" index="0" speed="13.89" length="0.30" width="3.00" shape="195.81,137.07 195.54,137.21"/>
        <lane id=":8442815756_0_1" index="1" speed="13.89" length="0.30" width="3.00" shape="194.37,134.44 194.10,134.58"/>
        <lane id=":8442815756_0_2" index="2" speed="13.89" length="0.30" width="3.00" shape="192.92,131.81 192.67,131.95"/>
    </edge>
    <edge id=":8442815761_0" function="internal">
        <lane id=":8442815761_0_0" index="0" speed="13.89" length="0.28" width="3.00" shape="104.41,186.02 104.20,186.14"/>
        <lane id=":8442815761_0_1" index="1" speed="13.89" length="0.28" width="3.00" shape="102.96,183.39 102.69,183.55"/>
    </edge>
    <edge id=":8442815762_0" function="internal">
        <lane id=":8442815762_0_0" index="0" speed="13.89" length="2.50" width="3.00" shape="96.46,190.64 95.42,192.96"/>
        <lane id=":8442815762_0_1" index="1" speed="13.89" length="2.50" width="3.00" shape="94.95,188.05 93.97,190.33"/>
        <lane id=":8442815762_0_2" index="2" speed="13.89" length="2.50" width="3.00" shape="94.95,188.05 92.52,187.70"/>
    </edge>
    <edge id=":8485604444_0" function="internal">
        <lane id=":8485604444_0_0" index="0" speed="13.89" length="0.26" width="4.00" shape="447.92,402.60 447.69,402.71"/>
    </edge>
    <edge id=":8559859037_0" function="internal">
        <lane id=":8559859037_0_0" index="0" speed="5.67" length="6.43" width="4.00" shape="210.68,209.86 209.29,210.94 208.59,212.20 208.58,213.65 209.26,215.29"/>
    </edge>
    <edge id=":8559859037_1" function="internal">
        <lane id=":8559859037_1_0" index="0" speed="13.89" length="7.97" width="4.00" shape="210.68,209.86 203.77,213.84"/>
    </edge>
    <edge id=":8562888715_0" function="internal">
        <lane id=":8562888715_0_0" index="0" speed="13.89" length="7.99" width="4.00" shape="138.20,327.65 134.38,320.63"/>
    </edge>
    <edge id=":8562888715_1" function="internal">
        <lane id=":8562888715_1_0" index="0" speed="4.08" length="1.99" width="4.00" shape="138.20,327.65 138.36,325.85 138.47,325.69"/>
    </edge>
    <edge id=":8562888715_6" function="internal">
        <lane id=":8562888715_6_0" index="0" speed="4.08" length="3.85" width="4.00" shape="138.47,325.69 139.00,324.93 140.12,324.89 141.72,325.73"/>
    </edge>
    <edge id=":8562888715_2" function="internal">
        <lane id=":8562888715_2_0" index="0" speed="5.88" length="5.55" width="4.00" shape="141.46,320.57 140.84,321.49 140.68,322.66 140.97,324.07 141.72,325.73"/>
    </edge>
    <edge id=":8562888715_3" function="internal">
        <lane id=":8562888715_3_0" index="0" speed="5.97" length="8.58" width="4.00" shape="141.46,320.57 139.26,322.23 137.35,322.80 135.72,322.26 134.38,320.63"/>
    </edge>
    <edge id=":8562888715_4" function="internal">
        <lane id=":8562888715_4_0" index="0" speed="13.89" length="7.99" width="4.00" shape="137.90,318.71 141.72,325.73"/>
    </edge>
    <edge id=":8562888715_5" function="internal">
        <lane id=":8562888715_5_0" index="0" speed="4.08" length="1.99" width="4.00" shape="137.90,318.71 137.74,320.51 137.63,320.66"/>
    </edge>
    <edge id=":8562888715_7" function="internal">
        <lane id=":8562888715_7_0" index="0" speed="4.08" length="3.85" width="4.00" shape="137.63,320.66 137.10,321.43 135.98,321.47 134.38,320.63"/>
    </edge>
    <edge id=":9724450286_0" function="internal">
        <lane id=":9724450286_0_0" index="0" speed="13.89" length="8.00" width="4.00" shape="131.64,383.16 124.64,387.04"/>
    </edge>
    <edge id=":9724450286_1" function="internal">
        <lane id=":9724450286_1_0" index="0" speed="5.69" length="6.46" width="4.00" shape="131.64,383.16 129.98,383.80 128.52,383.75 127.26,383.01 126.21,381.60"/>
    </edge>
    <edge id=":9724493086_0" function="internal">
        <lane id=":9724493086_0_0" index="0" speed="13.89" length="7.98" width="4.00" shape="220.69,264.95 216.84,257.96"/>
    </edge>
    <edge id=":9724493086_1" function="internal">
        <lane id=":9724493086_1_0" index="0" speed="4.08" length="1.99" width="4.00" shape="220.69,264.95 220.85,263.15 220.96,263.00"/>
    </edge>
    <edge id=":9724493086_4" function="internal">
        <lane id=":9724493086_4_0" index="0" speed="4.08" length="3.86" width="4.00" shape="220.96,263.00 221.49,262.23 222.61,262.19 224.21,263.03"/>
    </edge>
    <edge id=":9724493086_2" function="internal">
        <lane id=":9724493086_2_0" index="0" speed="13.89" length="8.01" width="4.00" shape="220.34,256.02 224.21,263.03"/>
    </edge>
    <edge id=":9724493086_3" function="internal">
        <lane id=":9724493086_3_0" index="0" speed="4.08" length="2.00" width="4.00" shape="220.34,256.02 220.19,257.82 220.08,257.98"/>
    </edge>
    <edge id=":9724493086_5" function="internal">
        <lane id=":9724493086_5_0" index="0" speed="4.08" length="3.85" width="4.00" shape="220.08,257.98 219.56,258.74 218.44,258.79 216.84,257.96"/>
    </edge>
    <edge id=":Custom33_0" function="internal">
        <lane id=":Custom33_0_0" index="0" speed="4.08" length="5.84" width="4.00" shape="20.15,158.85 19.22,157.31 19.19,156.19 20.07,155.50 21.85,155.23"/>
    </edge>
    <edge id=":Custom41_0" function="internal">
        <lane id=":Custom41_0_0" index="0" speed="4.08" length="5.84" width="4.00" shape="265.50,519.07 266.72,520.40 266.96,521.49 266.23,522.34 264.54,522.95"/>
    </edge>
    <edge id=":Custom57_0" function="internal">
        <lane id=":Custom57_0_0" index="0" speed="4.08" length="5.84" width="4.00" shape="36.38,1.93 35.20,0.56 34.98,-0.53 35.73,-1.36 37.44,-1.93"/>
    </edge>

    <edge id="-178853330_1" from="8562888715" to="1180720989" priority="-1" shape="136.14,319.67 126.10,301.26 116.59,283.69 105.38,262.99 94.17,242.38 90.09,234.87 78.25,213.76 75.24,208.67">
        <lane id="-178853330_1_0" index="0" speed="13.89" length="126.54" width="4.00" shape="134.38,320.63 124.34,302.21 114.83,284.64 103.62,263.94 92.41,243.34 88.34,235.84 76.52,214.76 73.52,209.69"/>
    </edge>
    <edge id="-178853330_2" from="1286" to="8562888715" priority="-1" shape="159.97,363.13 158.28,360.00 153.50,351.55 139.96,326.69">
        <lane id="-178853330_2_0" index="0" speed="13.89" length="41.57" width="4.00" shape="158.21,364.08 156.53,360.97 151.75,352.52 138.20,327.65"/>
    </edge>
    <edge id="-179095464_1" from="2729720008" to="1288" priority="-1" shape="229.20,276.36 246.59,308.15 248.68,312.26 249.79,315.09">
        <lane id="-179095464_1_0" index="0" speed="13.89" length="44.14" width="4.00" shape="230.95,275.40 248.36,307.22 250.51,311.44 251.65,314.36"/>
    </edge>
    <edge id="-179095464_2" from="9724493086" to="2729720008" priority="-1" shape="222.45,263.99 225.36,269.34">
        <lane id="-179095464_2_0" index="0" speed="13.89" length="6.09" width="4.00" shape="224.21,263.03 227.12,268.38"/>
    </edge>
    <edge id="-179095464_3" from="25609055" to="9724493086" priority="-1" shape="163.05,156.73 164.78,160.10 168.17,166.29 218.59,256.99">
        <lane id="-179095464_3_0" index="0" speed="13.89" length="114.60" width="4.00" shape="164.81,155.78 166.55,159.16 169.92,165.32 220.34,256.02"/>
    </edge>
    <edge id="-267256049" from="Custom41" to="2727238325" priority="-1" shape="265.02,521.01 258.02,519.27 243.29,515.59 240.40,514.77 236.65,513.45 234.90,512.59 232.37,511.02 231.15,510.01">
        <lane id="-267256049_0" index="0" speed="13.89" length="36.79" width="4.00" shape="264.54,522.95 257.54,521.21 242.80,517.53 239.79,516.68 235.87,515.30 233.93,514.34 231.20,512.65 229.87,511.55"/>
    </edge>