<?xml version="1.0" encoding="UTF-8"?>

<!-- generated on 2024-12-02 19:27:55 by Eclipse SUMO duarouter Version v1_21_0+1074-1c0ffc0f6ce
<duarouterConfiguration xmlns:xsi="http://www.w3.org/2001/XMLSchema-instance" xsi:noNamespaceSchemaLocation="http://sumo.dlr.de/xsd/duarouterConfiguration.xsd">

    <input>
        <net-file value="/Users/OBSiDIAN/Downloads/Shelves/VSCode/Repositories/THP/ASP2_Korseon/webots/worlds/worldA3_net/sumo.net.xml"/>
        <route-files value="/Users/OBSiDIAN/Downloads/Shelves/VSCode/Repositories/THP/ASP2_Korseon/webots/worlds/worldA3_net/sumo.trip.xml"/>
    </input>

    <output>
        <output-file value="/Users/OBSiDIAN/Downloads/Shelves/VSCode/Repositories/THP/ASP2_Korseon/webots/worlds/worldA3_net/sumo.rou.xml"/>
    </output>

    <report>
        <ignore-errors value="true"/>
    </report>

</duarouterConfiguration>
-->

<routes xmlns:xsi="http://www.w3.org/2001/XMLSchema-instance" xsi:noNamespaceSchemaLocation="http://sumo.dlr.de/xsd/routes_file.xsd">
    <vehicle id="2" depart="2.00">
        <routeDistribution last="0">
            <route cost="49.64" probability="1.00000000" edges="5089081 93540738 5089087 179095464_1 179095464_2 179095464_3 178853326 909306584 909306587 -4747199 4747199"/>
        </routeDistribution>
    </vehicle>
    <vehicle id="4" depart="4.00">
        <routeDistribution last="0">
            <route cost="34.68" probability="1.00000000" edges="267256048 5089081 93540738 5089087 4093357_2 -178853330_2"/>
        </routeDistribution>
    </vehicle>
    <vehicle id="9" depart="9.00">
        <routeDistribution last="0">
            <route cost="32.69" probability="1.00000000" edges="909306581 -179095464_3 -179095464_2 922401282 -178853330_1"/>
        </routeDistribution>
    </vehicle>
    <vehicle id="10" depart="10.00">
        <routeDistribution last="0">
            <route cost="39.43" probability="1.00000000" edges="909306581 178853326 909306584 909306587 178853330_1 178853330_2 160372962 267256048 5089081"/>
        </routeDistribution>
    </vehicle>
    <vehicle id="11" depart="11.00">
        <routeDistribution last="0">
            <route cost="26.42" probability="1.00000000" edges="179095464_1 179095464_2 179095464_3 178853326 909306584 909306587 -4747199 -5042468"/>
        </routeDistribution>
    </vehicle>
    <vehicle id="12" depart="12.00">
        <routeDistribution last="0">
            <route cost="25.29" probability="1.00000000" edges="922401282 -178853330_1 -4747199 178853327"/>
        </routeDistribution>
    </vehicle>
    <vehicle id="13" depart="13.00">
        <routeDistribution last="0">
            <route cost="54.77" probability="1.00000000" edges="-179095464_3 -179095464_2 922401282 -178853330_1 -4747199 178853327 909306586 909306585 -4252517_2 -4252517_1"/>
        </routeDistribution>
    </vehicle>
    <vehicle id="15" depart="15.00">
        <routeDistribution last="0">
            <route cost="52.59" probability="1.00000000" edges="909306581 178853326 909306584 909306587 178853330_1 178853330_2 160372962 267256048 5089081 93540738 5089086_1 5089086_2"/>
        </routeDistribution>
    </vehicle>
    <vehicle id="16" depart="16.00">
        <routeDistribution last="0">
            <route cost="61.90" probability="1.00000000" edges="37045840 977640112 1061427216 4093357_1 4093357_2 160372962 267256048 5089081 93540738"/>
        </routeDistribution>
    </vehicle>
    <vehicle id="18" depart="18.00">
        <routeDistribution last="0">
            <route cost="28.69" probability="1.00000000" edges="909306583 909306581 -179095464_3 -179095464_2 -179095464_1 4093357_2"/>
        </routeDistribution>
    </vehicle>
    <vehicle id="20" depart="20.00">
        <routeDistribution last="0">
            <route cost="63.89" probability="1.00000000" edges="5042468 4747199 178853330_1 178853330_2 160372962 267256048 5089081 93540738 5089087 179095464_1 -179095464_1"/>
        </routeDistribution>
    </vehicle>
    <vehicle id="21" depart="21.00">
        <routeDistribution last="0">
            <route cost="5.53" probability="1.00000000" edges="140779282"/>
        </routeDistribution>
    </vehicle>
    <vehicle id="28" depart="28.00">
        <routeDistribution last="0">
            <route cost="46.66" probability="1.00000000" edges="1061427216 4093357_1 4093357_2 160372962 267256048 5089081 93540738 5089086_1 5089086_2"/>
        </routeDistribution>
    </vehicle>
    <vehicle id="29" depart="29.00">
        <routeDistribution last="0">
            <route cost="25.97" probability="1.00000000" edges="1061427216 4093357_1 179095464_1 922401282 178853330_2"/>
        </routeDistribution>
    </vehicle>
    <vehicle id="30" depart="30.00">
        <routeDistribution last="0">
            <route cost="70.76" probability="1.00000000" edges="977640112 1061427216 4093357_1 4093357_2 -178853330_2 -178853330_1 -4747199 178853327 909306586 909306585 -4252517_2 4252517_2"/>
        </routeDistribution>
    </vehicle>
    <vehicle id="31" depart="31.00">
        <routeDistribution last="0">
            <route cost="84.68" probability="1.00000000" edges="38845436 118749704 38845437 140779282 140779281 913473545 5089087 179095464_1 179095464_2 179095464_3 178853326 909306584 909306587 -4747199 4747199"/>
        </routeDistribution>
    </vehicle>
    <vehicle id="32" depart="32.00">
        <routeDistribution last="0">
            <route cost="19.56" probability="1.00000000" edges="909306584 909306587 178853330_1 178853330_2 884806335_1"/>
        </routeDistribution>
    </vehicle>
    <vehicle id="33" depart="33.00">
        <routeDistribution last="0">
            <route cost="41.84" probability="1.00000000" edges="140779282 140779281 913473545 5089087 4093357_2 -178853330_2"/>
        </routeDistribution>
    </vehicle>
    <vehicle id="39" depart="39.00">
        <routeDistribution last="0">
            <route cost="26.66" probability="1.00000000" edges="178853326 909306584 909306587 -4747199 178853327 909306586 909306585 -4252517_2 1263965693"/>
        </routeDistribution>
    </vehicle>
    <vehicle id="40" depart="40.00">
        <routeDistribution last="0">
            <route cost="20.79" probability="1.00000000" edges="38845437 140779282 140779281"/>
        </routeDistribution>
    </vehicle>
    <vehicle id="41" depart="41.00">
        <routeDistribution last="0">
            <route cost="31.01" probability="1.00000000" edges="4093357_1 179095464_1 179095464_2 179095464_3 178853326 909306584 909306587"/>
        </routeDistribution>
    </vehicle>
    <vehicle id="44" depart="44.00">
        <routeDistribution last="0">
            <route cost="13.02" probability="1.00000000" edges="-179095464_3 -179095464_2 -179095464_1"/>
        </routeDistribution>
    </vehicle>
    <vehicle id="45" depart="45.00">
        <routeDistribution last="0">
            <route cost="36.12" probability="1.00000000" edges="-267256049 5089081 93540738 5089087 4093357_2"/>
        </routeDistribution>
    </vehicle>
    <vehicle id="47" depart="47.00">
        <routeDistribution last="0">
            <route cost="13.97" probability="1.00000000" edges="-179095464_2 922401282 178853330_2"/>
        </routeDistribution>
    </vehicle>
    <vehicle id="49" depart="49.00">
        <routeDistribution last="0">
            <route cost="48.68" probability="1.00000000" edges="93540738 5089087 179095464_1 179095464_2 179095464_3 178853326 909306584 909306587 -4747199 178853327 909306586 909306585"/>
        </routeDistribution>
    </vehicle>
    <vehicle id="50" depart="50.00">
        <routeDistribution last="0">
            <route cost="52.07" probability="1.00000000" edges="-178853330_1 178853330_1 178853330_2 160372962 267256048 5089081 93540738 5089086_1"/>
        </routeDistribution>
    </vehicle>
    <vehicle id="52" depart="52.00">
        <routeDistribution last="0">
            <route cost="34.39" probability="1.00000000" edges="178853326 909306584 909306587 -4747199 178853327 909306586 909306585 -4252517_2 4252517_2"/>
        </routeDistribution>
    </vehicle>
    <vehicle id="53" depart="53.00">
        <routeDistribution last="0">
            <route cost="41.90" probability="1.00000000" edges="-267256049 5089081 93540738 5089087 179095464_1 179095464_2 179095464_3"/>
        </routeDistribution>
    </vehicle>
    <vehicle id="54" depart="54.00">
        <routeDistribution last="0">
            <route cost="62.47" probability="1.00000000" edges="267529331 4747199 178853330_1 178853330_2 160372962 267256048 5089081 93540738 5089087 179095464_1 922401282"/>
        </routeDistribution>
    </vehicle>
    <vehicle id="57" depart="57.00">
        <routeDistribution last="0">
            <route cost="10.92" probability="1.00000000" edges="909306587 -4747199 178853327 909306586"/>
        </routeDistribution>
    </vehicle>
    <vehicle id="58" depart="58.00">
        <routeDistribution last="0">
            <route cost="23.31" probability="1.00000000" edges="178853327 909306586 909306585 -4252517_2 4252517_2"/>
        </routeDistribution>
    </vehicle>
    <vehicle id="59" depart="59.00">
        <routeDistribution last="0">
            <route cost="26.07" probability="1.00000000" edges="4093357_2 -178853330_2 -178853330_1 -4747199 -5042468"/>
        </routeDistribution>
    </vehicle>
    <vehicle id="62" depart="62.00">
        <routeDistribution last="0">
            <route cost="79.39" probability="1.00000000" edges="-178853330_1 178853330_1 178853330_2 160372962 267256048 5089081 93540738 5089087 179095464_1 179095464_2 179095464_3 178853326"/>
        </routeDistribution>
    </vehicle>
    <vehicle id="65" depart="65.00">
        <routeDistribution last="0">
            <route cost="61.62" probability="1.00000000" edges="178853330_1 178853330_2 160372962 267256048 5089081 93540738 5089087 179095464_1 179095464_2 -179095464_2"/>
        </routeDistribution>
    </vehicle>
    <vehicle id="67" depart="67.00">
        <routeDistribution last="0">
            <route cost="35.92" probability="1.00000000" edges="-179095464_3 -179095464_2 -179095464_1 4093357_2 160372962 267256048 267256049"/>
        </routeDistribution>
    </vehicle>
    <vehicle id="68" depart="68.00">
        <routeDistribution last="0">
            <route cost="14.94" probability="1.00000000" edges="-179095464_2 -179095464_1 4093357_2 884806335_1"/>
        </routeDistribution>
    </vehicle>
    <vehicle id="69" depart="69.00">
        <routeDistribution last="0">
            <route cost="46.74" probability="1.00000000" edges="5089087 179095464_1 179095464_2 179095464_3 178853326 909306584 909306587 -4747199 178853327 909306586 909306585 -4252517_2"/>
        </routeDistribution>
    </vehicle>
    <vehicle id="71" depart="71.00">
        <routeDistribution last="0">
            <route cost="16.20" probability="1.00000000" edges="178853326 909306584 909306587 -4747199 178853327 909306586"/>
        </routeDistribution>
    </vehicle>
    <vehicle id="73" depart="73.00">
        <routeDistribution last="0">
            <route cost="31.33" probability="1.00000000" edges="37045840 140779281 913473545 5089086_1 5089086_2"/>
        </routeDistribution>
    </vehicle>
    <vehicle id="74" depart="74.00">
        <routeDistribution last="0">
            <route cost="40.18" probability="1.00000000" edges="140779281 913473545 5089087 4093357_2 160372962"/>
        </routeDistribution>
    </vehicle>
    <vehicle id="80" depart="80.00">
        <routeDistribution last="0">
            <route cost="47.76" probability="1.00000000" edges="-179095464_2 922401282 -178853330_1 -4747199 178853327 909306586 909306585 -4252517_2 4252517_2"/>
        </routeDistribution>
    </vehicle>
    <vehicle id="81" depart="81.00">
        <routeDistribution last="0">
            <route cost="50.79" probability="1.00000000" edges="140779282 140779281 913473545 5089087 179095464_1 179095464_2 179095464_3 178853326 909306584 909306587"/>
        </routeDistribution>
    </vehicle>
    <vehicle id="82" depart="82.00">
        <routeDistribution last="0">
            <route cost="65.00" probability="1.00000000" edges="909306584 909306587 178853330_1 178853330_2 160372962 267256048 5089081 93540738 5089087 179095464_1 179095464_2 -179095464_2"/>
        </routeDistribution>
    </vehicle>
    <vehicle id="83" depart="83.00">
        <routeDistribution last="0">
            <route cost="59.25" probability="1.00000000" edges="140779282 140779281 913473545 5089087 179095464_1 179095464_2 179095464_3 178853326 909306584 909306587 -4747199 4747199"/>
        </routeDistribution>
    </vehicle>
    <vehicle id="84" depart="84.00">
        <routeDistribution last="0">
            <route cost="44.88" probability="1.00000000" edges="140779281 913473545 5089087 179095464_1 179095464_2 179095464_3 178853326 909306584 909306587 -4747199"/>
        </routeDistribution>
    </vehicle>
    <vehicle id="85" depart="85.00">
        <routeDistribution last="0">
            <route cost="48.05" probability="1.00000000" edges="913473545 5089087 179095464_1 179095464_2 179095464_3 178853326 909306584 909306587 39825592"/>
        </routeDistribution>
    </vehicle>
    <vehicle id="88" depart="88.00">
        <routeDistribution last="0">
            <route cost="27.96" probability="1.00000000" edges="-179095464_3 179095464_3"/>
        </routeDistribution>
    </vehicle>
    <vehicle id="89" depart="89.00">
        <routeDistribution last="0">
            <route cost="1.36" probability="1.00000000" edges="267256048"/>
        </routeDistribution>
    </vehicle>
    <vehicle id="90" depart="90.00">
        <routeDistribution last="0">
            <route cost="49.64" probability="1.00000000" edges="5089081 93540738 5089087 179095464_1 179095464_2 179095464_3 178853326 909306584 909306587 -4747199 4747199"/>
        </routeDistribution>
    </vehicle>
    <vehicle id="91" depart="91.00">
        <routeDistribution last="0">
            <route cost="68.94" probability="1.00000000" edges="977640112 1061427216 4093357_1 4093357_2 -178853330_2 -178853330_1 -4747199 178853327 909306586 909306585 -4252517_2 -4252517_1"/>
        </routeDistribution>
    </vehicle>
    <vehicle id="93" depart="93.00">
        <routeDistribution last="0">
            <route cost="10.28" probability="1.00000000" edges="909306585 -4252517_2 1263965693"/>
        </routeDistribution>
    </vehicle>
    <vehicle id="94" depart="94.00">
        <routeDistribution last="0">
            <route cost="52.19" probability="1.00000000" edges="118749704 38845437 140779282 977640112 231919281"/>
        </routeDistribution>
    </vehicle>
    <vehicle id="97" depart="97.00">
        <routeDistribution last="0">
            <route cost="11.04" probability="1.00000000" edges="267529331 178853327 909306586 909306585"/>
        </routeDistribution>
    </vehicle>
    <vehicle id="98" depart="98.00">
        <routeDistribution last="0">
            <route cost="68.52" probability="1.00000000" edges="38845436 118749704 38845437 140779282 140779281 913473545 5089087 179095464_1 -179095464_1"/>
        </routeDistribution>
    </vehicle>
    <vehicle id="99" depart="99.00">
        <routeDistribution last="0">
            <route cost="42.58" probability="1.00000000" edges="977640112 1061427216 4093357_1 179095464_1 179095464_2 179095464_3 178853326 909306584"/>
        </routeDistribution>
    </vehicle>
    <vehicle id="101" depart="101.00">
        <routeDistribution last="0">
            <route cost="8.14" probability="1.00000000" edges="909306584 909306587 -4747199 -5042468"/>
        </routeDistribution>
    </vehicle>
    <vehicle id="105" depart="105.00">
        <routeDistribution last="0">
            <route cost="28.11" probability="1.00000000" edges="178853326 909306584 909306587 178853330_1 178853330_2 884806335_1 884806335_2"/>
        </routeDistribution>
    </vehicle>
    <vehicle id="106" depart="106.00">
        <routeDistribution last="0">
            <route cost="55.72" probability="1.00000000" edges="267529331 4747199 178853330_1 178853330_2 160372962 267256048 5089081 93540738 5089087 179095464_1 179095464_2"/>
        </routeDistribution>
    </vehicle>
    <vehicle id="108" depart="108.00">
        <routeDistribution last="0">
            <route cost="46.73" probability="1.00000000" edges="38845436 118749704 38845437 140779282 140779281 913473545 5089086_1"/>
        </routeDistribution>
    </vehicle>
    <vehicle id="109" depart="109.00">
        <routeDistribution last="0">
            <route cost="30.30" probability="1.00000000" edges="-4747199 4747199 178853330_1 178853330_2 160372962"/>
        </routeDistribution>
    </vehicle>
    <vehicle id="111" depart="111.00">
        <routeDistribution last="0">
            <route cost="55.16" probability="1.00000000" edges="38845436 118749704 38845437 140779282 140779281 913473545 5089087"/>
        </routeDistribution>
    </vehicle>
    <vehicle id="114" depart="114.00">
        <routeDistribution last="0">
            <route cost="64.41" probability="1.00000000" edges="-4747199 4747199 178853330_1 178853330_2 160372962 267256048 5089081 93540738 5089087 179095464_1 922401282"/>
        </routeDistribution>
    </vehicle>
    <vehicle id="116" depart="116.00">
        <routeDistribution last="0">
            <route cost="38.36" probability="1.00000000" edges="4093357_1 4093357_2 -178853330_2 -178853330_1 -4747199 4747199"/>
        </routeDistribution>
    </vehicle>
    <vehicle id="117" depart="117.00">
        <routeDistribution last="0">
            <route cost="65.09" probability="1.00000000" edges="140779282 140779281 913473545 5089087 179095464_1 179095464_2 179095464_3 178853326 909306584 909306587 -4747199 178853327 909306586 909306585 -4252517_2"/>
        </routeDistribution>
    </vehicle>
    <vehicle id="118" depart="118.00">
        <routeDistribution last="0">
            <route cost="11.48" probability="1.00000000" edges="909306586 909306585 -4252517_2 1263965693"/>
        </routeDistribution>
    </vehicle>
    <vehicle id="119" depart="119.00">
        <routeDistribution last="0">
            <route cost="16.52" probability="1.00000000" edges="4093357_1 4093357_2"/>
        </routeDistribution>
    </vehicle>
    <vehicle id="122" depart="122.00">
        <routeDistribution last="0">
            <route cost="13.68" probability="1.00000000" edges="140779281 913473545 5089086_1"/>
        </routeDistribution>
    </vehicle>
    <vehicle id="123" depart="123.00">
        <routeDistribution last="0">
            <route cost="33.48" probability="1.00000000" edges="140779282 140779281 913473545 5089087 179095464_1"/>
        </routeDistribution>
    </vehicle>
    <vehicle id="125" depart="125.00">
        <routeDistribution last="0">
            <route cost="44.98" probability="1.00000000" edges="178853330_1 178853330_2 160372962 267256048 5089081 93540738 5089087"/>
        </routeDistribution>
    </vehicle>
    <vehicle id="127" depart="127.00">
        <routeDistribution last="0">
            <route cost="11.49" probability="1.00000000" edges="977640112"/>
        </routeDistribution>
    </vehicle>
    <vehicle id="130" depart="130.00">
        <routeDistribution last="0">
            <route cost="1.02" probability="1.00000000" edges="909306586"/>
        </routeDistribution>
    </vehicle>
    <vehicle id="131" depart="131.00">
        <routeDistribution last="0">
            <route cost="22.70" probability="1.00000000" edges="179095464_2 179095464_3 178853326 909306584 909306587 -4747199 -5042468"/>
        </routeDistribution>
    </vehicle>
    <vehicle id="132" depart="132.00">
        <routeDistribution last="0">
            <route cost="43.84" probability="1.00000000" edges="909306583 909306581 178853326 909306584 909306587 178853330_1 178853330_2 160372962 267256048 5089081"/>
        </routeDistribution>
    </vehicle>
    <vehicle id="135" depart="135.00">
        <routeDistribution last="0">
            <route cost="33.25" probability="1.00000000" edges="909306581 178853326 909306584 909306587 178853330_1 178853330_2 160372962"/>
        </routeDistribution>
    </vehicle>
    <vehicle id="136" depart="136.00">
        <routeDistribution last="0">
            <route cost="5.71" probability="1.00000000" edges="465240244_1 922015019"/>
        </routeDistribution>
    </vehicle>
    <vehicle id="137" depart="137.00">
        <routeDistribution last="0">
            <route cost="2.01" probability="1.00000000" edges="-4252517_2"/>
        </routeDistribution>
    </vehicle>
    <vehicle id="143" depart="143.00">
        <routeDistribution last="0">
            <route cost="76.66" probability="1.00000000" edges="909306584 909306587 178853330_1 178853330_2 160372962 267256048 5089081 93540738 5089087 179095464_1 179095464_2 179095464_3 -179095464_3"/>
        </routeDistribution>
    </vehicle>
    <vehicle id="145" depart="145.00">
        <routeDistribution last="0">
            <route cost="31.73" probability="1.00000000" edges="-178853330_1 178853330_1 178853330_2 884806335_1"/>
        </routeDistribution>
    </vehicle>
    <vehicle id="148" depart="148.00">
        <routeDistribution last="0">
            <route cost="44.36" probability="1.00000000" edges="267256048 5089081 93540738 5089087 4093357_2 -178853330_2 -178853330_1"/>
        </routeDistribution>
    </vehicle>
    <vehicle id="149" depart="149.00">
        <routeDistribution last="0">
            <route cost="29.57" probability="1.00000000" edges="-179095464_2 922401282 -178853330_1 -4747199 178853327 909306586"/>
        </routeDistribution>
    </vehicle>
    <vehicle id="152" depart="152.00">
        <routeDistribution last="0">
            <route cost="12.93" probability="1.00000000" edges="-4747199 178853327 909306586 909306585 -4252517_2"/>
        </routeDistribution>
    </vehicle>
    <vehicle id="153" depart="153.00">
        <routeDistribution last="0">
            <route cost="66.05" probability="1.00000000" edges="178853330_1 178853330_2 160372962 267256048 5089081 93540738 5089087 179095464_1 179095464_2 179095464_3 178853326 909306584 909306587"/>
        </routeDistribution>
    </vehicle>
    <vehicle id="156" depart="156.00">
        <routeDistribution last="0">
            <route cost="78.69" probability="1.00000000" edges="160372962 267256048 5089081 93540738 5089087 179095464_1 179095464_2 179095464_3 178853326 909306584 909306587 -4747199 178853327 909306586 909306585 -4252517_2 -4252517_1"/>
        </routeDistribution>
    </vehicle>
    <vehicle id="161" depart="161.00">
        <routeDistribution last="0">
            <route cost="19.22" probability="1.00000000" edges="909306581 178853326 909306584 909306587 -4747199 178853327 909306586"/>
        </routeDistribution>
    </vehicle>
    <vehicle id="162" depart="162.00">
        <routeDistribution last="0">
            <route cost="41.46" probability="1.00000000" edges="-178853330_2 178853330_2 160372962 267256048 5089081 93540738 5089086_1 5089086_2"/>
        </routeDistribution>
    </vehicle>
    <vehicle id="164" depart="164.00">
        <routeDistribution last="0">
            <route cost="20.88" probability="1.00000000" edges="909306581 178853326 909306584 909306587 -4747199 178853327 909306586 909306585"/>
        </routeDistribution>
    </vehicle>
    <vehicle id="167" depart="167.00">
        <routeDistribution last="0">
            <route cost="1.48" probability="1.00000000" edges="909306585"/>
        </routeDistribution>
    </vehicle>
    <vehicle id="172" depart="172.00">
        <routeDistribution last="0">
            <route cost="27.75" probability="1.00000000" edges="178853330_2 -178853330_2 -178853330_1 -4747199 178853327 909306586 909306585"/>
        </routeDistribution>
    </vehicle>
    <vehicle id="176" depart="176.00">
        <routeDistribution last="0">
            <route cost="56.89" probability="1.00000000" edges="913473545 5089087 179095464_1 179095464_2 179095464_3 178853326 909306584 909306587 -4747199 178853327 909306586 909306585 -4252517_2"/>
        </routeDistribution>
    </vehicle>
    <vehicle id="177" depart="177.00">
        <routeDistribution last="0">
            <route cost="28.27" probability="1.00000000" edges="93540738 5089087 4093357_2 884806335_1 1058281950"/>
        </routeDistribution>
    </vehicle>
    <vehicle id="179" depart="179.00">
        <routeDistribution last="0">
            <route cost="41.90" probability="1.00000000" edges="-267256049 5089081 93540738 5089087 179095464_1 179095464_2 179095464_3"/>
        </routeDistribution>
    </vehicle>
    <vehicle id="180" depart="180.00">
        <routeDistribution last="0">
            <route cost="38.18" probability="1.00000000" edges="5089081 93540738 5089087 4093357_2 160372962"/>
        </routeDistribution>
    </vehicle>
    <vehicle id="183" depart="183.00">
        <routeDistribution last="0">
            <route cost="23.24" probability="1.00000000" edges="160372962 267256048 5089081 93540738 5089086_1"/>
        </routeDistribution>
    </vehicle>
    <vehicle id="185" depart="185.00">
        <routeDistribution last="0">
            <route cost="26.13" probability="1.00000000" edges="37045840 140779281 913473545 5089086_1"/>
        </routeDistribution>
    </vehicle>
    <vehicle id="187" depart="187.00">
        <routeDistribution last="0">
            <route cost="12.31" probability="1.00000000" edges="179095464_2 -179095464_2"/>
        </routeDistribution>
    </vehicle>
    <vehicle id="189" depart="189.00">
        <routeDistribution last="0">
            <route cost="64.51" probability="1.00000000" edges="178853330_1 178853330_2 160372962 267256048 5089081 93540738 5089087 179095464_1 179095464_2 179095464_3 178853326 909306584"/>
        </routeDistribution>
    </vehicle>
    <vehicle id="190" depart="190.00">
        <routeDistribution last="0">
            <route cost="27.95" probability="1.00000000" edges="5042468 4747199 178853330_1 178853330_2 160372962"/>
        </routeDistribution>
    </vehicle>
    <vehicle id="191" depart="191.00">
        <routeDistribution last="0">
            <route cost="49.75" probability="1.00000000" edges="178853330_1 178853330_2 160372962 267256048 5089081 93540738 5089087 179095464_1 179095464_2"/>
        </routeDistribution>
    </vehicle>
    <vehicle id="194" depart="194.00">
        <routeDistribution last="0">
            <route cost="25.22" probability="1.00000000" edges="922401282 -178853330_1 -4747199 4747199"/>
        </routeDistribution>
    </vehicle>
    <vehicle id="195" depart="195.00">
        <routeDistribution last="0">
            <route cost="55.37" probability="1.00000000" edges="909306587 178853330_1 178853330_2 160372962 267256048 5089081 93540738 5089087 4093357_2"/>
        </routeDistribution>
    </vehicle>
    <vehicle id="202" depart="202.00">
        <routeDistribution last="0">
            <route cost="3.48" probability="1.00000000" edges="884806335_1 1058281950"/>
        </routeDistribution>
    </vehicle>
    <vehicle id="205" depart="205.00">
        <routeDistribution last="0">
            <route cost="55.83" probability="1.00000000" edges="909306581 178853326 909306584 909306587 178853330_1 178853330_2 160372962 267256048 5089081 93540738 5089087"/>
        </routeDistribution>
    </vehicle>
    <vehicle id="207" depart="207.00">
        <routeDistribution last="0">
            <route cost="58.06" probability="1.00000000" edges="118749704 38845437 140779282 140779281 913473545 5089087 4093357_2 -178853330_2"/>
        </routeDistribution>
    </vehicle>
    <vehicle id="208" depart="208.00">
        <routeDistribution last="0">
            <route cost="10.48" probability="1.00000000" edges="160372962 267256048"/>
        </routeDistribution>
    </vehicle>
    <vehicle id="209" depart="209.00">
        <routeDistribution last="0">
            <route cost="65.00" probability="1.00000000" edges="909306584 909306587 178853330_1 178853330_2 160372962 267256048 5089081 93540738 5089087 179095464_1 179095464_2 -179095464_2"/>
        </routeDistribution>
    </vehicle>
    <vehicle id="211" depart="211.00">
        <routeDistribution last="0">
            <route cost="70.19" probability="1.00000000" edges="118749704 38845437 140779282 140779281 913473545 5089087 4093357_2 160372962 267256048 5089081"/>
        </routeDistribution>
    </vehicle>
    <vehicle id="215" depart="215.00">
        <routeDistribution last="0">
            <route cost="33.06" probability="1.00000000" edges="-267256049 5089081 93540738 5089087 179095464_1 179095464_2"/>
        </routeDistribution>
    </vehicle>
    <vehicle id="216" depart="216.00">
        <routeDistribution last="0">
            <route cost="22.03" probability="1.00000000" edges="1061427216 4093357_1 179095464_1 922401282"/>
        </routeDistribution>
    </vehicle>
    <vehicle id="218" depart="218.00">
        <routeDistribution last="0">
            <route cost="51.22" probability="1.00000000" edges="160372962 267256048 5089081 93540738 5089087 179095464_1 179095464_2 179095464_3 178853326 909306584"/>
        </routeDistribution>
    </vehicle>
    <vehicle id="219" depart="219.00">
        <routeDistribution last="0">
            <route cost="19.42" probability="1.00000000" edges="267529331 178853327 909306586 909306585 909306578"/>
        </routeDistribution>
    </vehicle>
    <vehicle id="221" depart="221.00">
        <routeDistribution last="0">
            <route cost="21.47" probability="1.00000000" edges="4093357_1 179095464_1 922401282"/>
        </routeDistribution>
    </vehicle>
    <vehicle id="227" depart="227.00">
        <routeDistribution last="0">