<?xml version='1.0' encoding='UTF-8'?>
<nodes>
  <node id="10659307151" x="33.182165" y="64.543026" shape="34.650522,60.311486 36.877625,62.024381 37.414357,65.988207 33.450094,66.524998 29.486149,67.060856 28.950292,63.096912 30.685712,60.840904 34.650522,60.311486 34.650522,60.311486"/>
  <node id="10697136876" x="-19.573444" y="-174.333935"/>
  <node id="1180721045" x="-3.224944" y="114.794449" shape="-5.668271,107.936596 -1.041428,114.312517 -3.631671,116.752656 -4.149508,116.830421 -10.485963,115.325754 -9.670080,111.409847 -8.922484,110.262558 -5.668271,107.936596 -5.668271,107.936596"/>
  <node id="1180721060" x="40.317833" y="179.967071" shape="39.856157,175.518829 42.589053,176.114120 44.762109,179.472368 45.845509,181.169070 39.115834,185.494747 38.338415,184.792989 35.216637,178.864710 36.482234,177.667467 39.856157,175.518829 39.856157,175.518829"/>
  <node id="1273414213" x="7.889577" y="67.962154" shape="11.585593,65.444324 12.121450,69.408268 10.496149,71.575049 6.553117,72.247727 4.254604,70.567336 3.624448,66.617285 7.574499,65.987129 7.621648,65.980182 11.585593,65.444324 11.585593,65.444324"/>
  <node id="1287" x="-9.236326" y="-179.763804" shape="-7.774860,-185.119793 -5.812784,-181.631787 -3.896904,-178.120462 -10.743988,-174.384496 -11.860021,-176.142171 -13.707849,-179.689781 -14.532573,-181.428816 -7.774860,-185.119793 -7.774860,-185.119793"/>
  <node id="1288" x="-135.766665" y="-111.220859" shape="-133.501316,-116.404313 -131.300099,-111.443996 -131.944985,-108.898196 -135.331787,-106.769917 -138.411129,-107.614364 -140.238540,-111.172533 -140.950119,-113.486208 -133.501316,-116.404313 -133.501316,-116.404313"/>
  <node id="21607118" x="-29.515812" y="75.25873" shape="-29.763998,70.793486 -26.342110,71.698674 -25.392829,75.584400 -25.712554,77.611436 -29.116022,79.712960 -31.217546,76.309492 -31.252272,76.251053 -33.236919,72.778133 -29.763998,70.793486 -29.763998,70.793486"/>
  <node id="2727238325" x="-160.759578" y="75.018556" shape="-154.496268,70.916770 -153.985901,70.953925 -153.301835,76.899282 -158.419205,83.048471 -161.356174,80.604319 -163.854672,77.552405 -161.593499,73.200707 -158.534849,71.793180 -154.496268,70.916770 -154.496268,70.916770"/>
  <node id="609753" x="-53.760239" y="32.879345" shape="-54.061430,28.417363 -51.407257,29.076257 -49.305980,32.479878 -50.008451,35.313290 -53.456323,37.341142 -56.369968,36.511055 -58.231444,32.970588 -57.510540,30.443109 -54.061430,28.417363 -54.061430,28.417363"/>
  <node id="6140830547" x="-126.803029" y="163.237109" shape="-126.647557,158.767676 -124.340678,159.503903 -122.339054,162.967067 -129.237315,166.988676 -131.264854,163.540621 -130.285292,160.431072 -126.647557,158.767676 -126.647557,158.767676"/>
  <node id="6190888739" x="-121.993492" y="90.969956" shape="-122.001979,86.846859 -121.031340,87.087397 -120.541110,89.269784 -121.504784,93.151965 -122.955644,94.852515 -123.926284,94.611977 -122.001979,86.846859 -122.001979,86.846859"/>
  <node id="6190889602" x="-105.807318" y="58.454746"/>
  <node id="659298" x="113.5739" y="-145.586105" shape="113.777808,-150.053590 116.439202,-149.019697 118.040064,-145.354013 117.006778,-142.719863 113.340633,-141.120057 110.122257,-148.429723 113.777808,-150.053590 113.777808,-150.053590"/>
  <node id="659875" x="-104.515901" y="150.402312" shape="-103.226497,146.120088 -101.558954,153.757377 -105.425785,154.780909 -107.003464,154.118766 -108.981602,150.642134 -107.168038,146.801455 -103.226497,146.120088 -103.226497,146.120088"/>
  <node id="783156" x="-115.539973" y="92.571913" shape="-116.028681,90.389904 -115.058136,90.630822 -115.023364,90.639786 -108.260919,92.447917 -109.294137,96.312171 -109.687839,96.905125 -112.861650,99.339653 -116.992355,94.272085 -117.124555,93.792200 -116.028681,90.389904 -116.028681,90.389904"/>
  <node id="79302" x="71.542735" y="-32.945703" shape="73.120769,-38.304790 73.633675,-37.622023 76.907606,-31.266220 69.930865,-27.560132 68.925517,-29.319387 67.071351,-32.863688 66.225309,-34.658882 73.120769,-38.304790 73.120769,-38.304790"/>
  <node id="79303" x="148.928467" y="109.660684" shape="150.469581,104.254441 152.392240,107.762058 149.957914,111.375396 146.528490,113.434291 144.469595,110.004866 143.542036,108.051692 150.469581,104.254441 150.469581,104.254441"/>
  <node id="79308" x="146.340269" y="-72.93757" shape="146.550200,-77.404776 148.642673,-76.772177 150.788222,-73.396289 151.621390,-70.910314 144.313013,-67.656449 141.341804,-73.906645 142.892463,-75.785838 146.550200,-77.404776 146.550200,-77.404776"/>
  <node id="8485604444" x="60.800901" y="-27.386859"/>
  <node id="Custom20" x="366.088099" y="-217.300565"/>
  <node id="Custom21" x="204.415165" y="-186.463569"/>
  <node id="Custom22" x="184.489548" y="8.084034000000003"/>
  <node id="Custom23" x="108.654692" y="279.638141"/>
  <node id="Custom24" x="-226.01578600000002" y="-277.292628"/>
  <node id="Custom25" x="-106.60523100000002" y="-357.43850599999996"/>
  <node id="Custom26" x="7.102453" y="118.22159"/>
  <node id="Custom27" x="-129.868812" y="156.532449"/>
  <node id="Custom28" x="-91.43207199999999" y="178.210654"/>
  <node id="Custom29" x="23.749928" y="188.857442"/>
  <node id="Custom30" x="32.458654" y="59.007531"/>
  <node id="Custom31" x="-225.142611" y="-63.390699"/>
  <node id="Custom32" x="79.081997" y="-222.166941"/>
  <node id="Custom33" x="-141.209515" y="171.708469"/>
  <node id="Custom34" x="42.351061" y="63.301489"/>
</nodes>
