<?xml version='1.0' encoding='UTF-8'?>
<edges>
  <edge id="4014762" from="Custom20" to="79308" numLanes="1" width="4.0" shape="365.063486,-219.018170 360.139834,-216.081036 360.070946,-216.038022 317.901882,-188.501783 311.440687,-184.284711 311.425890,-184.274960 304.622122,-179.747834 236.389520,-134.297656 229.449937,-129.679411 229.438304,-129.671610 200.966805,-110.434969 195.396634,-106.772856 155.676246,-81.242372 148.642672,-76.772177 "/>
  <edge id="4094119" from="659298" to="Custom21" numLanes="1" width="4.0" shape="118.040064,-145.354013 124.405414,-148.133862 124.428124,-148.143948 197.131286,-180.976067 205.238994,-184.641124 "/>
  <edge id="4211449" from="1180721045" to="1180721060" numLanes="1" width="4.0" shape="-4.055302,116.946707 -3.635102,117.465398 1.007323,123.190411 6.694344,130.954133 32.307833,171.112563 36.482234,177.667467 "/>
  <edge id="4747200" from="783156" to="659875" numLanes="1" width="4.0" shape="-112.861650,99.339654 -112.291984,100.082306 -110.489494,102.729980 -110.486966,102.733684 -107.947569,106.445878 -106.104399,110.751347 -105.367634,113.718566 -105.386136,116.628969 -108.563132,132.717431 -108.588794,132.884070 -108.600330,133.052279 -108.711110,137.262094 -108.707347,137.448119 -108.686313,137.632989 -108.054279,141.553891 -107.776829,143.283570 -107.772665,143.308522 -107.511565,144.814233 -107.168038,146.801454 "/>
  <edge id="5089081" from="2727238325" to="6190889602" numLanes="1" width="4.0" shape="-153.898444,74.970878 -150.693316,75.204217 -148.539419,75.724336 -148.418687,75.749577 -145.413263,76.281772 -145.192313,76.308324 -142.967703,76.450746 -142.855898,76.454768 -140.717127,76.471853 -140.555418,76.466600 -140.394663,76.448294 -138.235495,76.113459 -137.975711,76.055241 -135.696234,75.382302 -135.490285,75.309048 -132.245740,73.950980 -132.123944,73.895134 -115.606479,65.641132 -115.603641,65.639712 -114.226173,64.948639 -114.221189,64.946129 -104.905479,60.239875 "/>
  <edge id="5089087" from="609753" to="1288" numLanes="1" width="4.0" shape="-54.061431,28.417363 -55.294959,26.317113 -75.047116,-9.669281 -75.120834,-9.792834 -79.746109,-16.946801 -79.822999,-17.057375 -85.881919,-25.173313 -90.929599,-33.400449 -92.922871,-37.165453 -97.053655,-45.153856 -97.072850,-45.190062 -130.020081,-105.827497 -130.084025,-105.936786 -131.944985,-108.898196 "/>
  <edge id="37045840" from="79303" to="79302" numLanes="1" width="7.9" shape="150.469581,104.254441 147.290366,98.454415 146.047935,96.180468 146.044792,96.174728 107.980601,26.781650 80.567192,-24.398586 79.295556,-26.770881 76.907604,-31.266220 "/>
  <edge id="37046318" from="79308" to="Custom22" numLanes="1" width="4.0" shape="147.967201,-69.283382 150.927536,-62.634291 161.120463,-39.656607 170.902667,-17.590374 173.921617,-11.211089 175.878593,-7.243169 177.744877,-3.216083 181.013012,3.007519 182.883463,6.027623 184.489548,8.084034 "/>
  <edge id="-37046318" to="79308" from="Custom22" numLanes="1" width="4.0" shape="184.489548,8.084034 182.883463,6.027623 181.013012,3.007519 177.744877,-3.216083 175.878593,-7.243169 173.921617,-11.211089 170.902667,-17.590374 161.120463,-39.656607 150.927536,-62.634291 147.967201,-69.283382 "/>
  <edge id="67882889" from="1180721060" to="Custom23" numLanes="1" width="4.0" shape="42.480672,183.331908 44.941703,187.160658 66.380382,220.516567 81.057875,242.370695 90.033879,254.798431 108.654692,279.638141 "/>
  <edge id="-67882889" to="1180721060" from="Custom23" numLanes="1" width="4.0" shape="108.654692,279.638141 90.033879,254.798431 81.057875,242.370695 66.380382,220.516567 44.941703,187.160658 42.480672,183.331908 "/>
  <edge id="93540738" from="6190889602" to="609753" numLanes="1" width="4.0" shape="-104.933132,60.253579 -62.339908,39.554377 -59.969874,38.402647 -59.913294,38.374034 -56.369968,36.511054 "/>
  <edge id="140779281" from="79302" to="8485604444" numLanes="1" width="4.0" shape="67.071350,-32.863689 62.060915,-30.242530 59.913416,-29.179168 "/>
  <edge id="140779282" from="79308" to="79302" numLanes="1" width="6.4" shape="141.250739,-73.859725 133.352712,-69.790405 133.278809,-69.751096 130.906064,-68.448944 109.950297,-56.972453 81.361384,-41.645651 79.192384,-40.484843 73.633884,-37.622131 "/>
  <edge id="179095464" from="1288" to="Custom24" numLanes="1" width="4.0" shape="-137.225717,-114.945260 -138.335430,-117.777932 -140.422610,-121.883146 -159.729614,-157.187593 -166.480171,-169.555067 -218.838996,-263.745166 -222.230927,-269.937534 -226.015786,-277.292628 "/>
  <edge id="-179095464" to="1288" from="Custom24" numLanes="1" width="4.0" shape="-226.015786,-277.292628 -222.230927,-269.937534 -218.838996,-263.745166 -166.480171,-169.555067 -159.729614,-157.187593 -140.422610,-121.883146 -138.335430,-117.777932 -137.225717,-114.945260 "/>
  <edge id="231919278" from="1180721060" to="79303" numLanes="1" width="4.0" shape="44.762109,179.472368 49.021020,176.716511 50.426121,175.808238 50.433043,175.803743 59.229711,170.065870 75.372063,159.547471 75.375180,159.545436 138.184000,118.452292 140.460794,117.083580 140.464000,117.081648 142.397887,115.914145 146.528489,113.434290 "/>
  <edge id="231919281" from="1287" to="Custom25" numLanes="1" width="7.7" shape="-7.774859,-185.119793 -10.365114,-189.862224 -10.372020,-189.874812 -11.432484,-191.799293 -72.112241,-302.790508 -89.629206,-335.216774 -90.955739,-337.682326 -90.999482,-337.761390 -95.217384,-345.178344 -96.697447,-347.778494 -103.256715,-359.338490 "/>
  <edge id="267237042" from="Custom26" to="1273414213" numLanes="1" width="4.0" shape="8.296322,119.826170 11.455577,117.475562 11.665376,117.295663 14.353365,114.647319 14.480139,114.510174 14.593567,114.361801 14.692660,114.203495 14.776554,114.036636 16.055368,111.166590 16.119960,111.002530 16.169852,110.833418 16.204656,110.660570 16.224101,110.485328 16.463708,106.883001 16.465489,106.647754 16.439634,106.413926 10.496149,71.575049 "/>
  <edge id="267256049" from="2727238325" to="6190888739" numLanes="1" width="4.0" shape="-155.860520,79.973876 -154.643714,80.986505 -152.111149,82.552444 -150.362299,83.415241 -146.608769,84.733570 -143.722333,85.553560 -128.989493,89.236250 -122.964132,90.729418 "/>
  <edge id="-267256049" to="2727238325" from="6190888739" numLanes="1" width="4.0" shape="-122.964132,90.729418 -128.989493,89.236250 -143.722333,85.553560 -146.608769,84.733570 -150.362299,83.415241 -152.111149,82.552444 -154.643714,80.986505 -155.860520,79.973876 "/>
  <edge id="655426855" from="6140830547" to="Custom27" numLanes="1" width="4.0" shape="-126.647558,158.767677 -128.049945,155.700751 "/>
  <edge id="913473545" from="8485604444" to="609753" numLanes="1" width="4.0" shape="59.863159,-29.153392 12.564984,-4.045741 -48.580355,27.338335 -48.717726,27.415835 -51.407256,29.076257 "/>
  <edge id="977640112" from="79302" to="1287" numLanes="1" width="7.8" shape="73.120768,-38.304789 70.139655,-43.942932 70.102421,-44.011676 69.232048,-45.580851 -0.197511,-171.362913 -1.320328,-173.398248 -3.896904,-178.120462 "/>
  <edge id="1061427216" from="1287" to="10697136876" numLanes="1" width="4.0" shape="-13.707849,-179.689781 -18.474147,-177.207179 -18.505171,-177.190671 -20.528382,-176.091232 "/>
  <edge id="1080083946" from="659875" to="Custom28" numLanes="1" width="4.0" shape="-105.425784,154.780909 -104.565507,158.030976 -103.119841,163.592233 -103.058751,163.786159 -101.310667,168.486886 -101.234326,168.665190 -101.141072,168.835262 -99.132637,172.110628 -99.050646,172.233860 -98.959766,172.350691 -92.964183,179.496202 "/>
  <edge id="1125808588" from="Custom29" to="1180721060" numLanes="1" width="6.7" shape="25.357381,191.796591 33.620435,187.277436 38.338415,184.792990 "/>
  <edge id="1145361829" from="10659307151" to="Custom30" numLanes="1" width="4.0" shape="34.650522,60.311485 34.441059,58.742821 "/>
  <edge id="4093357_1" from="10697136876" to="1288" numLanes="1" width="4.0" shape="-20.526411,-176.092302 -130.341252,-116.576928 -130.370853,-116.560560 -133.097653,-115.022518 "/>
  <edge id="4093357_2" from="1288" to="Custom31" numLanes="1" width="4.0" shape="-140.238540,-111.172533 -143.095367,-109.705319 -143.127380,-109.688510 -220.211398,-68.321712 -220.213590,-68.320534 -224.802003,-65.850824 -224.807798,-65.847693 -226.096316,-65.148666 "/>
  <edge id="38845437_1" from="Custom32" to="659298" numLanes="1" width="4.0" shape="77.275411,-221.308892 82.269144,-210.794799 82.973920,-209.205332 82.976240,-209.200119 107.381450,-154.580715 107.383698,-154.575703 108.023895,-153.153427 110.122257,-148.429722 "/>
  <edge id="38845437_2" from="659298" to="79308" numLanes="1" width="4.0" shape="113.340632,-141.120057 115.608441,-135.923104 115.616697,-135.904445 116.416675,-134.121058 116.418192,-134.117685 125.504574,-113.961333 125.509290,-113.950950 140.425027,-81.360624 142.892462,-75.785838 "/>
  <edge id="274201788_1" from="6190888739" to="783156" numLanes="1" width="4.0" shape="-121.504783,93.151965 -117.125124,94.239128 "/>
  <edge id="274201788_2" from="783156" to="1180721045" numLanes="1" width="4.0" shape="-109.294137,96.312171 -102.967915,98.003666 -102.929084,98.013633 -91.903657,100.726018 -85.882006,102.210247 -85.807821,102.227042 -59.018305,107.758898 -51.667054,109.321908 -40.497604,111.691530 -40.325131,111.720307 -35.949338,112.255024 -31.795130,112.761582 -31.763629,112.765170 -22.974964,113.695715 -18.397551,114.177138 -10.982102,115.222383 -10.485961,115.325754 "/>
  <edge id="5089086_1" from="609753" to="21607118" numLanes="1" width="4.0" shape="-53.456323,37.341142 -52.142629,39.574760 -50.169403,43.042978 -42.023776,57.394020 -42.021313,57.398347 -37.419992,65.458200 -33.236919,72.778132 "/>
  <edge id="5089086_2" from="21607118" to="1180721045" numLanes="1" width="4.0" shape="-29.116021,79.712960 -24.794893,86.711128 -24.764824,86.758335 -16.119612,99.920724 -16.090520,99.963787 -9.423926,109.560689 -9.408458,109.582640 -8.922482,110.262559 "/>
  <edge id="312712970_2" from="1273414213" to="21607118" numLanes="1" width="4.0" shape="3.624448,66.617286 -22.713333,70.818985 -22.872896,70.851147 -26.342110,71.698675 "/>
  <edge id="951586632_1" from="Custom33" to="6140830547" numLanes="1" width="4.0" shape="-140.195745,173.432497 -129.237314,166.988677 "/>
  <edge id="951586632_2" from="6140830547" to="659875" numLanes="1" width="4.0" shape="-122.339054,162.967067 -109.601434,155.605033 -108.577765,155.014512 -107.003465,154.118766 "/>
  <edge id="312712970_1" from="Custom34" to="10659307151" numLanes="1" width="4.0" shape="42.082695,61.319576 36.877626,62.024381 "/>
  <edge id="312712970_3" from="10659307151" to="1273414213" numLanes="1" width="4.0" shape="28.950292,63.096912 11.585593,65.444324 "/>
</edges>
