<?xml version="1.0" encoding="UTF-8"?>

<!-- generated on 2024-12-03 13:28:54.141917 by osmWebWizard.py v1_21_0+1074-1c0ffc0f6ce
<configuration>
    <net-file value="/Users/OBSiDIAN/2024-12-03-13-28-48/osm.net.xml.gz"/>
    <output-trip-file value="/Users/OBSiDIAN/2024-12-03-13-28-48/osm.passenger.trips.xml"/>
    <route-file value="/Users/OBSiDIAN/2024-12-03-13-28-48/osm.passenger.rou.xml"/>
    <prefix value="veh"/>
    <trip-attributes value="departLane=&quot;best&quot;"/>
    <fringe-start-attributes value="departSpeed=&quot;max&quot;"/>
    <vehicle-class value="passenger"/>
    <lanes value="True"/>
    <fringe-factor value="10"/>
    <allow-fringe.min-length value="1000.0"/>
    <via-edge-types value="highway.motorway,highway.motorway_link,highway.trunk_link,highway.primary_link,highway.secondary_link,highway.tertiary_link"/>
    <min-distance value="300.0"/>
    <min-distance.fringe value="10.0"/>
    <remove-loops value="True"/>
    <validate value="True"/>
    <insertion-density value="30.0"/>
</configuration>
-->

<!-- generated on 2024-12-03 13:28:54 by Eclipse SUMO duarouter Version v1_21_0+1074-1c0ffc0f6ce
<duarouterConfiguration xmlns:xsi="http://www.w3.org/2001/XMLSchema-instance" xsi:noNamespaceSchemaLocation="http://sumo.dlr.de/xsd/duarouterConfiguration.xsd">

    <input>
        <net-file value="/Users/OBSiDIAN/2024-12-03-13-28-48/osm.net.xml.gz"/>
        <route-files value="/Users/OBSiDIAN/2024-12-03-13-28-48/osm.passenger.trips.xml"/>
    </input>

    <output>
        <output-file value="/Users/OBSiDIAN/2024-12-03-13-28-48/osm.passenger.trips.xml.tmp"/>
        <alternatives-output value="NUL"/>
        <write-trips value="true"/>
    </output>

    <processing>
        <remove-loops value="true"/>
    </processing>

    <time>
        <begin value="0.0"/>
        <end value="3600.0"/>
    </time>

    <report>
        <no-warnings value="true"/>
        <ignore-errors value="true"/>
        <no-step-log value="true"/>
    </report>

</duarouterConfiguration>
-->

<routes xmlns:xsi="http://www.w3.org/2001/XMLSchema-instance" xsi:noNamespaceSchemaLocation="http://sumo.dlr.de/xsd/routes_file.xsd">
    <vType id="veh_passenger" vClass="passenger"/>
    <trip id="veh0" type="veh_passenger" depart="0.00" departLane="best" departSpeed="max" from="1111982484#0" to="-1155762025#2"/>
    <trip id="veh1" type="veh_passenger" depart="18.71" departLane="best" departSpeed="max" from="-4611708#2" to="-681299267#1"/>
    <trip id="veh2" type="veh_passenger" depart="37.42" departLane="best" from="-66071366#3" to="-168935756#2"/>
    <trip id="veh3" type="veh_passenger" depart="56.13" departLane="best" departSpeed="max" from="-4773029#3" to="-1155762025#2"/>
    <trip id="veh4" type="veh_passenger" depart="74.83" departLane="best" departSpeed="max" from="-4402014#1" to="1228446781"/>
    <trip id="veh5" type="veh_passenger" depart="93.54" departLane="best" from="1155757393#0" to="1249342905"/>
    <trip id="veh6" type="veh_passenger" depart="112.25" departLane="best" departSpeed="max" from="-4402014#1" to="24242882#0"/>
    <trip id="veh7" type="veh_passenger" depart="130.96" departLane="best" departSpeed="max" from="326116286#0" to="-1132162834#1"/>
    <trip id="veh8" type="veh_passenger" depart="149.67" departLane="best" departSpeed="max" from="-1228446781" to="24242882#0"/>
    <trip id="veh9" type="veh_passenger" depart="168.38" departLane="best" departSpeed="max" from="326116286#0" to="4588222#0"/>
    <trip id="veh10" type="veh_passenger" depart="187.08" departLane="best" departSpeed="max" from="-4773029#3" to="1249342905"/>
    <trip id="veh11" type="veh_passenger" depart="205.79" departLane="best" departSpeed="max" from="1111982484#0" to="1136657260#0"/>
    <trip id="veh12" type="veh_passenger" depart="224.50" departLane="best" departSpeed="max" from="-4611711" to="-681299267#1"/>
    <trip id="veh13" type="veh_passenger" depart="243.21" departLane="best" from="-4588220#2" to="68647306#0"/>
    <trip id="veh14" type="veh_passenger" depart="261.92" departLane="best" from="1155757393#0" to="35557161#3"/>
    <trip id="veh15" type="veh_passenger" depart="280.63" departLane="best" departSpeed="max" from="-4402014#1" to="4588222#0"/>
    <trip id="veh16" type="veh_passenger" depart="299.33" departLane="best" departSpeed="max" from="326116286#0" to="4611708#0"/>
    <trip id="veh17" type="veh_passenger" depart="318.04" departLane="best" departSpeed="max" from="-4611708#2" to="-753316506"/>
    <trip id="veh18" type="veh_passenger" depart="336.75" departLane="best" departSpeed="max" from="1155762025#0" to="1136657260#0"/>
    <trip id="veh19" type="veh_passenger" depart="355.46" departLane="best" departSpeed="max" from="681299267#0" to="1190781963#0"/>
    <trip id="veh20" type="veh_passenger" depart="374.17" departLane="best" departSpeed="max" from="-882389497" to="-753316506"/>
    <trip id="veh21" type="veh_passenger" depart="392.88" departLane="best" departSpeed="max" from="-4773029#3" to="-681299267#1"/>
    <trip id="veh22" type="veh_passenger" depart="411.58" departLane="best" departSpeed="max" from="-1228446781" to="4402014#0"/>
    <trip id="veh23" type="veh_passenger" depart="430.29" departLane="best" departSpeed="max" from="326116286#0" to="1151333056"/>
    <trip id="veh24" type="veh_passenger" depart="449.00" departLane="best" departSpeed="max" from="753316506" to="66071366#4"/>
    <trip id="veh25" type="veh_passenger" depart="467.71" departLane="best" from="-1132163645#2" to="4588217#0"/>
    <trip id="veh26" type="veh_passenger" depart="486.42" departLane="best" departSpeed="max" from="1155762025#0" to="1249342905"/>
    <trip id="veh27" type="veh_passenger" depart="505.13" departLane="best" departSpeed="max" from="-1228446781" to="1151333056"/>
    <trip id="veh28" type="veh_passenger" depart="523.83" departLane="best" departSpeed="max" from="-66071366#4" to="882389497"/>
    <trip id="veh29" type="veh_passenger" depart="542.54" departLane="best" departSpeed="max" from="681299267#0" to="66071366#4"/>
    <trip id="veh30" type="veh_passenger" depart="561.25" departLane="best" departSpeed="max" from="-4611708#2" to="4402014#0"/>
    <trip id="veh31" type="veh_passenger" depart="579.96" departLane="best" departSpeed="max" from="326116286#0" to="1249342905"/>
    <trip id="veh32" type="veh_passenger" depart="598.67" departLane="best" departSpeed="max" from="326116286#0" to="1249342905"/>
    <trip id="veh33" type="veh_passenger" depart="617.38" departLane="best" from="-1105574291#3" to="1132163645#3"/>
    <trip id="veh34" type="veh_passenger" depart="636.08" departLane="best" departSpeed="max" from="-1132163645#4" to="68647306#0"/>
    <trip id="veh35" type="veh_passenger" depart="654.79" departLane="best" departSpeed="max" from="-4611708#2" to="-1155762025#2"/>
    <trip id="veh36" type="veh_passenger" depart="673.50" departLane="best" from="4588222#0" to="840229275#0"/>
    <trip id="veh37" type="veh_passenger" depart="692.21" departLane="best" from="-1136657259#1" to="4611708#0"/>
    <trip id="veh38" type="veh_passenger" depart="710.92" departLane="best" departSpeed="max" from="-66071366#4" to="1249342905"/>
    <trip id="veh39" type="veh_passenger" depart="729.63" departLane="best" from="-4588220#2" to="66071366#4"/>
    <trip id="veh40" type="veh_passenger" depart="748.33" departLane="best" from="-66071366#3" to="-681299267#1"/>
    <trip id="veh41" type="veh_passenger" depart="767.04" departLane="best" departSpeed="max" from="-882389497" to="-1136657259#1"/>
    <trip id="veh42" type="veh_passenger" depart="785.75" departLane="best" departSpeed="max" from="-4402014#1" to="1132163645#3"/>
    <trip id="veh43" type="veh_passenger" depart="804.46" departLane="best" departSpeed="max" from="-66071366#4" to="1249342905"/>
    <trip id="veh44" type="veh_passenger" depart="823.17" departLane="best" departSpeed="max" from="-4611711" to="24242882#0"/>
    <trip id="veh45" type="veh_passenger" depart="841.88" departLane="best" from="-1136657259#1" to="4402014#0"/>
    <trip id="veh46" type="veh_passenger" depart="860.58" departLane="best" departSpeed="max" from="-4402014#1" to="68647306#0"/>
    <trip id="veh47" type="veh_passenger" depart="879.29" departLane="best" departSpeed="max" from="-1228446781" to="1151333056"/>
    <trip id="veh48" type="veh_passenger" depart="898.00" departLane="best" from="-66071366#3" to="1228446781"/>
    <trip id="veh49" type="veh_passenger" depart="916.71" departLane="best" from="22972473#0" to="4402014#0"/>
    <trip id="veh50" type="veh_passenger" depart="935.42" departLane="best" departSpeed="max" from="753316506" to="-326116286#2"/>
    <trip id="veh51" type="veh_passenger" depart="954.13" departLane="best" departSpeed="max" from="-4773029#3" to="1132163645#3"/>
    <trip id="veh52" type="veh_passenger" depart="972.83" departLane="best" departSpeed="max" from="-4402014#1" to="1151333056"/>
    <trip id="veh53" type="veh_passenger" depart="991.54" departLane="best" departSpeed="max" from="-4773029#3" to="-753316506"/>
    <trip id="veh54" type="veh_passenger" depart="1010.25" departLane="best" departSpeed="max" from="-4402014#1" to="68647306#0"/>
    <trip id="veh55" type="veh_passenger" depart="1028.96" departLane="best" from="-1132162834#1" to="4773029#0"/>
    <trip id="veh56" type="veh_passenger" depart="1047.67" departLane="best" departSpeed="max" from="753316506" to="68647306#0"/>
    <trip id="veh57" type="veh_passenger" depart="1066.38" departLane="best" from="-35557161#2" to="1155757393#0"/>
    <trip id="veh58" type="veh_passenger" depart="1085.08" departLane="best" departSpeed="max" from="-840229277#1" to="-681299267#1"/>
    <trip id="veh59" type="veh_passenger" depart="1103.79" departLane="best" departSpeed="max" from="-4773029#3" to="-1155762025#2"/>
    <trip id="veh60" type="veh_passenger" depart="1122.50" departLane="best" departSpeed="max" from="-4773029#3" to="882389497"/>
    <trip id="veh61" type="veh_passenger" depart="1141.21" departLane="best" from="-4588220#2" to="4611708#0"/>
    <trip id="veh62" type="veh_passenger" depart="1159.92" departLane="best" departSpeed="max" from="753316506" to="882389497"/>
    <trip id="veh63" type="veh_passenger" depart="1178.63" departLane="best" from="-35557161#2" to="1110748916#0"/>
    <trip id="veh64" type="veh_passenger" depart="1197.33" departLane="best" departSpeed="max" from="753316506" to="196850609#0"/>
    <trip id="veh65" type="veh_passenger" depart="1216.04" departLane="best" departSpeed="max" from="-882389497" to="4611708#0"/>
    <trip id="veh66" type="veh_passenger" depart="1234.75" departLane="best" departSpeed="max" from="-840229277#1" to="66071366#4"/>
    <trip id="veh67" type="veh_passenger" depart="1253.46" departLane="best" from="-35557161#3" to="882389497"/>
    <trip id="veh68" type="veh_passenger" depart="1272.17" departLane="best" departSpeed="max" from="1111982484#0" to="4402014#0"/>
    <trip id="veh69" type="veh_passenger" depart="1290.88" departLane="best" from="-66071366#3" to="-753316506"/>
    <trip id="veh70" type="veh_passenger" depart="1309.58" departLane="best" departSpeed="max" from="-4773029#3" to="22972473#0"/>
    <trip id="veh71" type="veh_passenger" depart="1328.29" departLane="best" departSpeed="max" from="-840229277#1" to="68647306#0"/>
    <trip id="veh72" type="veh_passenger" depart="1347.00" departLane="best" departSpeed="max" from="-4402014#1" to="1136657260#0"/>
    <trip id="veh73" type="veh_passenger" depart="1365.71" departLane="best" from="-4588220#2" to="68647306#0"/>
    <trip id="veh74" type="veh_passenger" depart="1384.42" departLane="best" departSpeed="max" from="1155762025#0" to="68647306#0"/>
    <trip id="veh75" type="veh_passenger" depart="1403.13" departLane="best" departSpeed="max" from="-1228446781" to="1249342905"/>
    <trip id="veh76" type="veh_passenger" depart="1421.83" departLane="best" departSpeed="max" from="1111982484#0" to="-753316506"/>
    <trip id="veh77" type="veh_passenger" depart="1440.54" departLane="best" departSpeed="max" from="-840229277#1" to="68647306#0"/>
    <trip id="veh78" type="veh_passenger" depart="1459.25" departLane="best" from="-66071366#3" to="-753316506"/>
    <trip id="veh79" type="veh_passenger" depart="1477.96" departLane="best" departSpeed="max" from="1111982484#0" to="-753316506"/>
    <trip id="veh80" type="veh_passenger" depart="1496.67" departLane="best" departSpeed="max" from="-66071366#4" to="-1132162834#1"/>
    <trip id="veh81" type="veh_passenger" depart="1515.38" departLane="best" from="292429056#0" to="66071366#4"/>
    <trip id="veh82" type="veh_passenger" depart="1534.08" departLane="best" departSpeed="max" from="681299267#0" to="1249342905"/>
    <trip id="veh83" type="veh_passenger" depart="1552.79" departLane="best" from="-35557143#5" to="-326116286#2"/>
    <trip id="veh84" type="veh_passenger" depart="1571.50" departLane="best" departSpeed="max" from="326116286#0" to="66071366#4"/>
    <trip id="veh85" type="veh_passenger" depart="1590.21" departLane="best" departSpeed="max" from="326116286#0" to="66071366#4"/>
    <trip id="veh86" type="veh_passenger" depart="1608.92" departLane="best" departSpeed="max" from="-4773029#3" to="42102542#0"/>
    <trip id="veh87" type="veh_passenger" depart="1627.63" departLane="best" departSpeed="max" from="326116286#0" to="66071366#4"/>
    <trip id="veh88" type="veh_passenger" depart="1646.33" departLane="best" departSpeed="max" from="-1132163645#4" to="4611706#0"/>
    <trip id="veh89" type="veh_passenger" depart="1665.04" departLane="best" departSpeed="max" from="-4611711" to="68647306#0"/>
    <trip id="veh90" type="veh_passenger" depart="1683.75" departLane="best" departSpeed="max" from="326116286#0" to="66071366#4"/>
    <trip id="veh91" type="veh_passenger" depart="1702.46" departLane="best" departSpeed="max" from="326116286#0" to="-753316506"/>
    <trip id="veh92" type="veh_passenger" depart="1721.17" departLane="best" from="4588219#0" to="66071366#4"/>
    <trip id="veh93" type="veh_passenger" depart="1739.88" departLane="best" departSpeed="max" from="-4402014#1" to="4773029#0"/>
    <trip id="veh94" type="veh_passenger" depart="1758.58" departLane="best" departSpeed="max" from="-66071366#4" to="1132163645#0"/>
    <trip id="veh95" type="veh_passenger" depart="1777.29" departLane="best" departSpeed="max" from="753316506" to="1249342905"/>
    <trip id="veh96" type="veh_passenger" depart="1796.00" departLane="best" departSpeed="max" from="753316506" to="-4611710#2"/>
    <trip id="veh97" type="veh_passenger" depart="1814.71" departLane="best" departSpeed="max" from="-1228446781" to="1151333056"/>
    <trip id="veh98" type="veh_passenger" depart="1833.42" departLane="best" departSpeed="max" from="1111982484#0" to="1228446781"/>
    <trip id="veh99" type="veh_passenger" depart="1852.13" departLane="best" departSpeed="max" from="-4773029#3" to="196850608#0"/>
    <trip id="veh100" type="veh_passenger" depart="1870.83" departLane="best" from="243854725#0" to="4402014#0"/>
    <trip id="veh101" type="veh_passenger" depart="1889.54" departLane="best" departSpeed="max" from="-4611711" to="-1155762025#2"/>
    <trip id="veh102" type="veh_passenger" depart="1908.25" departLane="best" departSpeed="max" from="1155762025#0" to="1132163645#3"/>
    <trip id="veh103" type="veh_passenger" depart="1926.96" departLane="best" departSpeed="max" from="-1228446781" to="1151333056"/>
    <trip id="veh104" type="veh_passenger" depart="1945.67" departLane="best" departSpeed="max" from="681299267#0" to="389101365#0"/>
    <trip id="veh105" type="veh_passenger" depart="1964.38" departLane="best" departSpeed="max" from="-66071366#4" to="196850609#0"/>
    <trip id="veh106" type="veh_passenger" depart="1983.08" departLane="best" departSpeed="max" from="-66071366#4" to="-681299267#1"/>
    <trip id="veh107" type="veh_passenger" depart="2001.79" departLane="best" departSpeed="max" from="-1228446781" to="1249342905"/>
    <trip id="veh108" type="veh_passenger" depart="2020.50" departLane="best" departSpeed="max" from="1111982484#0" to="1132163645#3"/>
    <trip id="veh109" type="veh_passenger" depart="2039.21" departLane="best" departSpeed="max" from="326116286#0" to="4611708#0"/>
    <trip id="veh110" type="veh_passenger" depart="2057.92" departLane="best" departSpeed="max" from="-4402014#1" to="1228446781"/>
    <trip id="veh111" type="veh_passenger" depart="2076.63" departLane="best" from="-35557161#3" to="-1190781962#1"/>
    <trip id="veh112" type="veh_passenger" depart="2095.33" departLane="best" departSpeed="max" from="-4773029#3" to="4402014#0"/>
    <trip id="veh113" type="veh_passenger" depart="2114.04" departLane="best" departSpeed="max" from="-840229277#1" to="-753316506"/>
    <trip id="veh114" type="veh_passenger" depart="2132.75" departLane="best" departSpeed="max" from="326116286#0" to="4611708#0"/>
    <trip id="veh115" type="veh_passenger" depart="2151.46" departLane="best" departSpeed="max" from="-1228446781" to="1151333056"/>
    <trip id="veh116" type="veh_passenger" depart="2170.17" departLane="best" departSpeed="max" from="-840229277#1" to="-1155762025#2"/>
    <trip id="veh117" type="veh_passenger" depart="2188.88" departLane="best" departSpeed="max" from="-4402014#1" to="66071366#4"/>
    <trip id="veh118" type="veh_passenger" depart="2207.58" departLane="best" departSpeed="max" from="326116286#0" to="1249342905"/>
    <trip id="veh119" type="veh_passenger" depart="2226.29" departLane="best" departSpeed="max" from="681299267#0" to="4611708#0"/>
    <trip id="veh120" type="veh_passenger" depart="2245.00" departLane="best" departSpeed="max" from="-66071366#4" to="-753316506"/>
    <trip id="veh121" type="veh_passenger" depart="2263.71" departLane="best" departSpeed="max" from="326116286#0" to="1249342905"/>
    <trip id="veh122" type="veh_passenger" depart="2282.42" departLane="best" departSpeed="max" from="1111982484#0" to="-753316506"/>
    <trip id="veh123" type="veh_passenger" depart="2301.13" departLane="best" from="-4611706#2" to="1132163645#3"/>
    <trip id="veh124" type="veh_passenger" depart="2319.83" departLane="best" departSpeed="max" from="-4773029#3" to="1249342905"/>
    <trip id="veh125" type="veh_passenger" depart="2338.54" departLane="best" departSpeed="max" from="-4773029#3" to="-681299267#1"/>
    <trip id="veh126" type="veh_passenger" depart="2357.25" departLane="best" from="-1105574291#3" to="4402014#0"/>
    <trip id="veh127" type="veh_passenger" depart="2375.96" departLane="best" from="389101365#0" to="4611708#0"/>
    <trip id="veh128" type="veh_passenger" depart="2394.67" departLane="best" departSpeed="max" from="-4773029#3" to="-1132162834#1"/>
    <trip id="veh129" type="veh_passenger" depart="2413.38" departLane="best" from="-35557161#3" to="882389497"/>
    <trip id="veh130" type="veh_passenger" depart="2432.08" departLane="best" departSpeed="max" from="-882389497" to="35557161#0"/>
    <trip id="veh131" type="veh_passenger" depart="2450.79" departLane="best" departSpeed="max" from="-66071366#4" to="-1155762025#2"/>
    <trip id="veh132" type="veh_passenger" depart="2469.50" departLane="best" departSpeed="max" from="-4611711" to="4402014#0"/>
    <trip id="veh133" type="veh_passenger" depart="2488.21" departLane="best" departSpeed="max" from="-4773029#3" to="-389101365#4"/>
    <trip id="veh134" type="veh_passenger" depart="2506.92" departLane="best" departSpeed="max" from="-66071366#4" to="-326116286#2"/>
    <trip id="veh135" type="veh_passenger" depart="2525.63" departLane="best" departSpeed="max" from="1111982484#0" to="-1155762025#2"/>
    <trip id="veh136" type="veh_passenger" depart="2544.33" departLane="best" departSpeed="max" from="-4773029#3" to="196850609#0"/>
    <trip id="veh137" type="veh_passenger" depart="2563.04" departLane="best" departSpeed="max" from="-1132163645#4" to="4402014#0"/>
    <trip id="veh138" type="veh_passenger" depart="2581.75" departLane="best" departSpeed="max" from="-4402014#1" to="1132163645#3"/>
    <trip id="veh139" type="veh_passenger" depart="2600.46" departLane="best" departSpeed="max" from="326116286#0" to="1136657260#0"/>
    <trip id="veh140" type="veh_passenger" depart="2619.17" departLane="best" departSpeed="max" from="326116286#0" to="4773029#0"/>
    <trip id="veh141" type="veh_passenger" depart="2637.88" departLane="best" from="1155757393#0" to="4611708#0"/>
    <trip id="veh142" type="veh_passenger" depart="2656.58" departLane="best" departSpeed="max" from="1155762025#0" to="4611708#0"/>
    <trip id="veh143" type="veh_passenger" depart="2675.29" departLane="best" departSpeed="max" from="-1132163645#4" to="35557161#0"/>
    <trip id="veh144" type="veh_passenger" depart="2694.00" departLane="best" departSpeed="max" from="-1228446781" to="4402014#0"/>
    <trip id="veh145" type="veh_passenger" depart="2712.71" departLane="best" departSpeed="max" from="-882389497" to="-681299267#1"/>
    <trip id="veh146" type="veh_passenger" depart="2731.42" departLane="best" from="1190781963#0" to="4611708#0"/>
    <trip id="veh147" type="veh_passenger" depart="2750.13" departLane="best" departSpeed="max" from="-4402014#1" to="35557161#3"/>
    <trip id="veh148" type="veh_passenger" depart="2768.84" departLane="best" departSpeed="max" from="-4611708#2" to="4402014#0"/>
    <trip id="veh149" type="veh_passenger" depart="2787.54" departLane="best" departSpeed="max" from="753316506" to="1136657260#0"/>
    <trip id="veh150" type="veh_passenger" depart="2806.25" departLane="best" departSpeed="max" from="-1228446781" to="4611708#0"/>
    <trip id="veh151" type="veh_passenger" depart="2824.96" departLane="best" departSpeed="max" from="-1228446781" to="882389497"/>
    <trip id="veh152" type="veh_passenger" depart="2843.67" departLane="best" departSpeed="max" from="326116286#0" to="1132163645#3"/>
    <trip id="veh153" type="veh_passenger" depart="2862.38" departLane="best" departSpeed="max" from="-66071366#4" to="1136657260#0"/>
    <trip id="veh154" type="veh_passenger" depart="2881.09" departLane="best" departSpeed="max" from="-1228446781" to="882389497"/>
    <trip id="veh155" type="veh_passenger" depart="2899.79" departLane="best" departSpeed="max" from="1111982484#0" to="4773029#0"/>
    <trip id="veh156" type="veh_passenger" depart="2918.50" departLane="best" from="1190781964" to="1151333056"/>
    <trip id="veh157" type="veh_passenger" depart="2937.21" departLane="best" departSpeed="max" from="-882389497" to="1228446781"/>
    <trip id="veh158" type="veh_passenger" depart="2955.92" departLane="best" departSpeed="max" from="-66071366#4" to="4588222#0"/>
    <trip id="veh159" type="veh_passenger" depart="2974.63" departLane="best" from="4611706#0" to="-753316506"/>
    <trip id="veh160" type="veh_passenger" depart="2993.34" departLane="best" departSpeed="max" from="-4773029#3" to="-1155762025#2"/>
    <trip id="veh161" type="veh_passenger" depart="3012.04" departLane="best" departSpeed="max" from="-4402014#1" to="4773029#0"/>
    <trip id="veh162" type="veh_passenger" depart="3030.75" departLane="best" departSpeed="max" from="-1228446781" to="-874528353#4"/>
    <trip id="veh163" type="veh_passenger" depart="3049.46" departLane="best" departSpeed="max" from="-840229277#1" to="4611708#0"/>
    <trip id="veh164" type="veh_passenger" depart="3068.17" departLane="best" departSpeed="max" from="-840229277#1" to="4773029#0"/>
    <trip id="veh165" type="veh_passenger" depart="3086.88" departLane="best" departSpeed="max" from="1155762025#0" to="1132163645#3"/>
    <trip id="veh166" type="veh_passenger" depart="3105.59" departLane="best" departSpeed="max" from="-882389497" to="1228446781"/>
    <trip id="veh167" type="veh_passenger" depart="3124.29" departLane="best" from="-874528353#4" to="1151333056"/>
    <trip id="veh168" type="veh_passenger" depart="3143.00" departLane="best" from="292429056#0" to="1132163645#3"/>
    <trip id="veh169" type="veh_passenger" depart="3161.71" departLane="best" departSpeed="max" from="-882389497" to="4611708#0"/>
    <trip id="veh170" type="veh_passenger" depart="3180.42" departLane="best" departSpeed="max" from="753316506" to="1249342905"/>
    <trip id="veh171" type="veh_passenger" depart="3199.13" departLane="best" departSpeed="max" from="-4611708#2" to="-326116286#2"/>
    <trip id="veh172" type="veh_passenger" depart="3217.84" departLane="best" departSpeed="max" from="-882389497" to="-753316506"/>
    <trip id="veh173" type="veh_passenger" depart="3236.54" departLane="best" departSpeed="max" from="753316506" to="1249342905"/>
    <trip id="veh174" type="veh_passenger" depart="3255.25" departLane="best" from="4588217#0" to="1228446781"/>
    <trip id="veh175" type="veh_passenger" depart="3273.96" departLane="best" departSpeed="max" from="326116286#0" to="1136657260#0"/>
    <trip id="veh176" type="veh_passenger" depart="3292.67" departLane="best" departSpeed="max" from="-882389497" to="1132163645#0"/>
    <trip id="veh177" type="veh_passenger" depart="3311.38" departLane="best" departSpeed="max" from="753316506" to="-326116286#2"/>
    <trip id="veh178" type="veh_passenger" depart="3330.09" departLane="best" departSpeed="max" from="326116286#0" to="35557161#0"/>
    <trip id="veh179" type="veh_passenger" depart="3348.79" departLane="best" departSpeed="max" from="-840229277#1" to="1151333056"/>
    <trip id="veh180" type="veh_passenger" depart="3367.50" departLane="best" departSpeed="max" from="1111982484#0" to="35557161#3"/>
    <trip id="veh181" type="veh_passenger" depart="3386.21" departLane="best" departSpeed="max" from="1155762025#0" to="35557161#3"/>
    <trip id="veh182" type="veh_passenger" depart="3404.92" departLane="best" from="1105574291#0" to="1151333056"/>
    <trip id="veh183" type="veh_passenger" depart="3423.63" departLane="best" departSpeed="max" from="1155762025#0" to="68647306#0"/>
    <trip id="veh184" type="veh_passenger" depart="3442.34" departLane="best" departSpeed="max" from="1155762025#0" to="68647306#0"/>
    <trip id="veh185" type="veh_passenger" depart="3461.04" departLane="best" from="-66071366#3" to="1249342905"/>
    <trip id="veh186" type="veh_passenger" depart="3479.75" departLane="best" from="1155757393#0" to="68647306#0"/>
    <trip id="veh187" type="veh_passenger" depart="3498.46" departLane="best" departSpeed="max" from="-4402014#1" to="1132163645#3"/>
    <trip id="veh188" type="veh_passenger" depart="3517.17" departLane="best" departSpeed="max" from="-4611708#2" to="-326116286#2"/>
    <trip id="veh189" type="veh_passenger" depart="3535.88" departLane="best" departSpeed="max" from="-1132163645#4" to="1151333056"/>
    <trip id="veh190" type="veh_passenger" depart="3554.59" departLane="best" from="4611710#0" to="-753316506"/>
    <trip id="veh191" type="veh_passenger" depart="3573.29" departLane="best" departSpeed="max" from="-1228446781" to="882389497"/>
    <trip id="veh192" type="veh_passenger" depart="3592.00" departLane="best" departSpeed="max" from="326116286#0" to="196850608#0"/>
</routes>
